                                   MODFLOW 6
                U.S. GEOLOGICAL SURVEY MODULAR HYDROLOGIC MODEL
                       GROUNDWATER TRANSPORT MODEL (GWT)
                            VERSION 6.2.1 02/18/2021

  MODFLOW 6 compiled May  6 2021 00:38:39 with GFORTRAN compiler (ver. 10.2.0)

This software has been approved for release by the U.S. Geological 
Survey (USGS). Although the software has been subjected to rigorous 
review, the USGS reserves the right to update the software as needed 
pursuant to further analysis and review. No warranty, expressed or 
implied, is made by the USGS or the U.S. Government as to the 
functionality of the software and related material nor shall the 
fact of release constitute any such warranty. Furthermore, the 
software is released on condition that neither the USGS nor the U.S. 
Government shall be held liable for any damages resulting from its 
authorized or unauthorized use. Also refer to the USGS Water 
Resources Software User Rights Notice for complete use, copyright, 
and distribution information.


System command used to initiate simulation:
/usr/local/bin/mf6

MODFLOW was compiled using uniform precision.

Real Variables
  KIND: 8
  TINY (smallest non-zero value):    2.225074-308
  HUGE (largest value):    1.797693+308
  PRECISION: 15
  BIT SIZE: 64

Integer Variables
  KIND: 4
  HUGE (largest value): 2147483647
  BIT SIZE: 32

Long Integer Variables
  KIND: 8
  HUGE (largest value): 9223372036854775807
  BIT SIZE: 64

Logical Variables
  KIND: 4
  BIT SIZE: 32


 OPENED /Users/Theo/GRWMODELS/python/Pennink_model/cases/Series2/GWT/Series2Gwt.dis
 FILE TYPE:DIS6                   UNIT 1012   STATUS:OLD                 
 FORMAT:FORMATTED              ACCESS:SEQUENTIAL          
 ACTION:READ                


 OPENED /Users/Theo/GRWMODELS/python/Pennink_model/cases/Series2/GWT/Series2Gwt.adv
 FILE TYPE:ADV6                   UNIT 1013   STATUS:OLD                 
 FORMAT:FORMATTED              ACCESS:SEQUENTIAL          
 ACTION:READ                


 OPENED /Users/Theo/GRWMODELS/python/Pennink_model/cases/Series2/GWT/Series2Gwt.cnc
 FILE TYPE:CNC6                   UNIT 1014   STATUS:OLD                 
 FORMAT:FORMATTED              ACCESS:SEQUENTIAL          
 ACTION:READ                


 OPENED /Users/Theo/GRWMODELS/python/Pennink_model/cases/Series2/GWT/Series2Gwt.dsp
 FILE TYPE:DSP6                   UNIT 1015   STATUS:OLD                 
 FORMAT:FORMATTED              ACCESS:SEQUENTIAL          
 ACTION:READ                


 OPENED /Users/Theo/GRWMODELS/python/Pennink_model/cases/Series2/GWT/Series2Gwt.ic
 FILE TYPE:IC6                    UNIT 1016   STATUS:OLD                 
 FORMAT:FORMATTED              ACCESS:SEQUENTIAL          
 ACTION:READ                


 OPENED /Users/Theo/GRWMODELS/python/Pennink_model/cases/Series2/GWT/Series2Gwt.mst
 FILE TYPE:MST6                   UNIT 1017   STATUS:OLD                 
 FORMAT:FORMATTED              ACCESS:SEQUENTIAL          
 ACTION:READ                


 OPENED /Users/Theo/GRWMODELS/python/Pennink_model/cases/Series2/GWT/Series2Gwt.oc
 FILE TYPE:OC6                    UNIT 1018   STATUS:OLD                 
 FORMAT:FORMATTED              ACCESS:SEQUENTIAL          
 ACTION:READ                


 OPENED /Users/Theo/GRWMODELS/python/Pennink_model/cases/Series2/GWT/Series2Gwt.ssm
 FILE TYPE:SSM6                   UNIT 1019   STATUS:OLD                 
 FORMAT:FORMATTED              ACCESS:SEQUENTIAL          
 ACTION:READ                

 NAMEFILE OPTIONS:
    FLOWS WILL BE SAVED TO BUDGET FILE SPECIFIED IN OUTPUT CONTROL

 DIS -- STRUCTURED GRID DISCRETIZATION PACKAGE, VERSION 2 : 3/27/2014 - INPUT READ FROM UNIT 1012


 # File generated by Flopy version 3.4.3 on 12/05/2023 at 20:56:26.
 PROCESSING DISCRETIZATION OPTIONS
    MODEL LENGTH UNIT IS CENTIMETERS
 END OF DISCRETIZATION OPTIONS
 PROCESSING DISCRETIZATION DIMENSIONS
    NLAY =      65
    NROW =       1
    NCOL =      65
 END OF DISCRETIZATION DIMENSIONS
 PROCESSING GRIDDATA

                     DELC =   1.800000    
 END PROCESSING GRIDDATA

 THE SPECIFIED IDOMAIN RESULTS IN A REDUCED NUMBER OF CELLS.
 NUMBER OF USER NODES: 4225
 NUMBER OF NODES IN SOLUTION: 3763



 FMI -- FLOW MODEL INTERFACE, VERSION 1, 8/29/2017
  FLOWS PROVIDED BY A GWF MODEL IN THIS SIMULATION
 # File generated by Flopy version 3.4.3 on 12/05/2023 at 20:56:26.
 PROCESSING DISPERSION OPTIONS
 END OF DISPERSION OPTIONS

 CNC   -- CNC PACKAGE, VERSION 8, 2/22/2014 INPUT READ FROM UNIT 1014
 # File generated by Flopy version 3.4.3 on 12/05/2023 at 20:56:26.

 PROCESSING CNC OPTIONS
    FLOWS WILL BE SAVED TO BUDGET FILE SPECIFIED IN OUTPUT CONTROL
 END OF CNC OPTIONS

 PROCESSING CNC DIMENSIONS
    MAXBOUND =       4
 END OF CNC DIMENSIONS

 IC -- INITIAL CONDITIONS PACKAGE, VERSION 8, 3/28/2015 INPUT READ FROM UNIT 1016
 # File generated by Flopy version 3.4.3 on 12/05/2023 at 20:56:26.
 PROCESSING GRIDDATA
 END PROCESSING GRIDDATA

 MST -- MOBILE STORAGE AND TRANSFER PACKAGE, VERSION 1, 7/29/2020 INPUT READ FROM UNIT 1017


 # File generated by Flopy version 3.4.3 on 12/05/2023 at 20:56:26.
 PROCESSING MOBILE STORAGE AND TRANSFER OPTIONS
    CELL-BY-CELL FLOW INFORMATION WILL BE SAVED TO BINARY FILE WHENEVER ICBCFL IS NOT ZERO.
 END OF MOBILE STORAGE AND TRANSFER OPTIONS
 PROCESSING GRIDDATA

   MOBILE DOMAIN POROSITY =  0.2000000    
 END PROCESSING GRIDDATA

 ADV-- ADVECTION PACKAGE, VERSION 1, 8/25/2017 INPUT READ FROM UNIT 1013


 # File generated by Flopy version 3.4.3 on 12/05/2023 at 20:56:26.
 PROCESSING ADVECTION OPTIONS
    ADVECTION WEIGHTING SCHEME HAS BEEN SET TO: TVD
 SELECTED ADVECTION SCHEME RESULTS IN AN ASYMMETRIC MATRIX.
 END OF ADVECTION OPTIONS

 DSP-- DISPERSION PACKAGE, VERSION 1, 1/24/2018 INPUT READ FROM UNIT 1015


 PROCESSING GRIDDATA

    DIFFUSION COEFFICIENT =  0.6000000E-04

                      ALH =   1.000000    

                     ATH1 =  0.1000000E-01

                     ATH2 =  0.1000000E-01

                      ATV =  0.1000000    
 END PROCESSING GRIDDATA

 SSM -- SOURCE-SINK MIXING PACKAGE, VERSION 1, 8/25/2017 INPUT READ FROM UNIT 1019


 # File generated by Flopy version 3.4.3 on 12/05/2023 at 20:56:26.
 PROCESSING SSM OPTIONS
    CELL-BY-CELL FLOW INFORMATION WILL BE SAVED TO BINARY FILE WHENEVER ICBCFL IS NOT ZERO.
 END OF SSM OPTIONS
 PROCESSING SOURCES
 END PROCESSING SOURCES
      THE LAST TIME STEP WILL BE PRINTED
      THE LAST TIME STEP WILL BE PRINTED
 # File generated by Flopy version 3.4.3 on 12/05/2023 at 20:56:26.

 PROCESSING OC OPTIONS

    BUDGET INFORMATION WILL BE WRITTEN TO:
      UNIT NUMBER: 1024
      FILE NAME: /Users/Theo/GRWMODELS/python/Pennink_model/cases/Series2/SIM/Series2Gwt.cbc

 OPENED /Users/Theo/GRWMODELS/python/Pennink_model/cases/Series2/SIM/Series2Gwt.cbc
 FILE TYPE:DATA(BINARY)   UNIT 1024   STATUS:REPLACE             
 FORMAT:UNFORMATTED            ACCESS:STREAM              
 ACTION:READWRITE           

    CONCENTRATION INFORMATION WILL BE WRITTEN TO:
      UNIT NUMBER: 1025
      FILE NAME: /Users/Theo/GRWMODELS/python/Pennink_model/cases/Series2/SIM/Series2Gwt.ucn

 OPENED /Users/Theo/GRWMODELS/python/Pennink_model/cases/Series2/SIM/Series2Gwt.ucn
 FILE TYPE:DATA(BINARY)   UNIT 1025   STATUS:REPLACE             
 FORMAT:UNFORMATTED            ACCESS:STREAM              
 ACTION:READWRITE           

 END OF OC OPTIONS

start timestep kper="1" kstp="1" mode="normal"


 BEGIN READING OUTPUT CONTROL FOR STRESS PERIOD 1
      ALL TIME STEPS WILL BE SAVED
      ALL TIME STEPS WILL BE SAVED

 END READING OUTPUT CONTROL FOR STRESS PERIOD 1

 REUSING CNCS FROM LAST STRESS PERIOD

 XT3D is active.


 UBDSV1 SAVING  STORAGE-AQUEOUS ON UNIT   1024 AT TIME STEP      1, STRESS PERIOD      1
 UBDSV1 SAVING     FLOW-JA-FACE ON UNIT   1024 AT TIME STEP      1, STRESS PERIOD      1
 UBDSV06 SAVING  SOURCE-SINK MIX IN MODEL SERIES2GWT       PACKAGE SERIES2GWT      CONNECTED TO MODEL SERIES2GWT       PACKAGE SSM              ON UNIT   1024 AT TIME STEP      1, STRESS PERIOD      1
 UBDSV06 SAVING              CNC IN MODEL SERIES2GWT       PACKAGE SERIES2GWT      CONNECTED TO MODEL SERIES2GWT       PACKAGE CNC              ON UNIT   1024 AT TIME STEP      1, STRESS PERIOD      1

 CONCENTRATION WILL BE SAVED ON UNIT 1025 AT END OF TIME STEP    1, STRESS PERIOD    1


  MASS BUDGET FOR ENTIRE MODEL AT END OF TIME STEP    1, STRESS PERIOD   1
  ---------------------------------------------------------------------------------------------------

     CUMULATIVE MASS      M       RATES FOR THIS TIME STEP      M/T          PACKAGE NAME    
     ------------------                 ------------------------                     ----------------

           IN:                                      IN:
           ---                                      ---
     STORAGE-AQUEOUS =           0.0000       STORAGE-AQUEOUS =           0.0000     MST             
               CHD_0 =           0.0000                 CHD_0 =           0.0000     SSM             
                 CNC =           0.0000                   CNC =           0.0000     CNC             

            TOTAL IN =           0.0000              TOTAL IN =           0.0000

          OUT:                                     OUT:
          ----                                     ----
     STORAGE-AQUEOUS =           0.0000       STORAGE-AQUEOUS =           0.0000     MST             
               CHD_0 =           0.0000                 CHD_0 =           0.0000     SSM             
                 CNC =           0.0000                   CNC =           0.0000     CNC             

           TOTAL OUT =           0.0000             TOTAL OUT =           0.0000

            IN - OUT =           0.0000              IN - OUT =           0.0000

 PERCENT DISCREPANCY =           0.00     PERCENT DISCREPANCY =           0.00




         TIME SUMMARY AT END OF TIME STEP    1 IN STRESS PERIOD    1
                    SECONDS     MINUTES      HOURS       DAYS        YEARS
                    -----------------------------------------------------------
   TIME STEP LENGTH  300.00      5.0000     8.33333E-02 3.47222E-03 9.50643E-06
 STRESS PERIOD TIME  300.00      5.0000     8.33333E-02 3.47222E-03 9.50643E-06
         TOTAL TIME  300.00      5.0000     8.33333E-02 3.47222E-03 9.50643E-06


end timestep


start timestep kper="2" kstp="1" mode="normal"


 END OF FILE DETECTED IN OUTPUT CONTROL.
 CURRENT OUTPUT CONTROL SETTINGS WILL BE 
 REPEATED UNTIL THE END OF THE SIMULATION.

 OUTPUT CONTROL FOR STRESS PERIOD 2 IS REPEATED USING SETTINGS FROM A PREVIOUS STRESS PERIOD.

 REUSING CNCS FROM LAST STRESS PERIOD
 UBDSV1 SAVING  STORAGE-AQUEOUS ON UNIT   1024 AT TIME STEP      1, STRESS PERIOD      2
 UBDSV1 SAVING     FLOW-JA-FACE ON UNIT   1024 AT TIME STEP      1, STRESS PERIOD      2
 UBDSV06 SAVING  SOURCE-SINK MIX IN MODEL SERIES2GWT       PACKAGE SERIES2GWT      CONNECTED TO MODEL SERIES2GWT       PACKAGE SSM              ON UNIT   1024 AT TIME STEP      1, STRESS PERIOD      2
 UBDSV06 SAVING              CNC IN MODEL SERIES2GWT       PACKAGE SERIES2GWT      CONNECTED TO MODEL SERIES2GWT       PACKAGE CNC              ON UNIT   1024 AT TIME STEP      1, STRESS PERIOD      2

 CONCENTRATION WILL BE SAVED ON UNIT 1025 AT END OF TIME STEP    1, STRESS PERIOD    2


  MASS BUDGET FOR ENTIRE MODEL AT END OF TIME STEP    1, STRESS PERIOD   2
  ---------------------------------------------------------------------------------------------------

     CUMULATIVE MASS      M       RATES FOR THIS TIME STEP      M/T          PACKAGE NAME    
     ------------------                 ------------------------                     ----------------

           IN:                                      IN:
           ---                                      ---
     STORAGE-AQUEOUS =           0.0000       STORAGE-AQUEOUS =           0.0000     MST             
               CHD_0 =           0.0000                 CHD_0 =           0.0000     SSM             
                 CNC =           0.0000                   CNC =           0.0000     CNC             

            TOTAL IN =           0.0000              TOTAL IN =           0.0000

          OUT:                                     OUT:
          ----                                     ----
     STORAGE-AQUEOUS =           0.0000       STORAGE-AQUEOUS =           0.0000     MST             
               CHD_0 =           0.0000                 CHD_0 =           0.0000     SSM             
                 CNC =           0.0000                   CNC =           0.0000     CNC             

           TOTAL OUT =           0.0000             TOTAL OUT =           0.0000

            IN - OUT =           0.0000              IN - OUT =           0.0000

 PERCENT DISCREPANCY =           0.00     PERCENT DISCREPANCY =           0.00




         TIME SUMMARY AT END OF TIME STEP    1 IN STRESS PERIOD    2
                    SECONDS     MINUTES      HOURS       DAYS        YEARS
                    -----------------------------------------------------------
   TIME STEP LENGTH  300.00      5.0000     8.33333E-02 3.47222E-03 9.50643E-06
 STRESS PERIOD TIME  300.00      5.0000     8.33333E-02 3.47222E-03 9.50643E-06
         TOTAL TIME  600.00      10.000     0.16667     6.94444E-03 1.90129E-05


end timestep


start timestep kper="3" kstp="1" mode="normal"


 OUTPUT CONTROL FOR STRESS PERIOD 3 IS REPEATED USING SETTINGS FROM A PREVIOUS STRESS PERIOD.

 REUSING CNCS FROM LAST STRESS PERIOD
 UBDSV1 SAVING  STORAGE-AQUEOUS ON UNIT   1024 AT TIME STEP      1, STRESS PERIOD      3
 UBDSV1 SAVING     FLOW-JA-FACE ON UNIT   1024 AT TIME STEP      1, STRESS PERIOD      3
 UBDSV06 SAVING  SOURCE-SINK MIX IN MODEL SERIES2GWT       PACKAGE SERIES2GWT      CONNECTED TO MODEL SERIES2GWT       PACKAGE SSM              ON UNIT   1024 AT TIME STEP      1, STRESS PERIOD      3
 UBDSV06 SAVING              CNC IN MODEL SERIES2GWT       PACKAGE SERIES2GWT      CONNECTED TO MODEL SERIES2GWT       PACKAGE CNC              ON UNIT   1024 AT TIME STEP      1, STRESS PERIOD      3

 CONCENTRATION WILL BE SAVED ON UNIT 1025 AT END OF TIME STEP    1, STRESS PERIOD    3


  MASS BUDGET FOR ENTIRE MODEL AT END OF TIME STEP    1, STRESS PERIOD   3
  ---------------------------------------------------------------------------------------------------

     CUMULATIVE MASS      M       RATES FOR THIS TIME STEP      M/T          PACKAGE NAME    
     ------------------                 ------------------------                     ----------------

           IN:                                      IN:
           ---                                      ---
     STORAGE-AQUEOUS =           0.0000       STORAGE-AQUEOUS =           0.0000     MST             
               CHD_0 =           0.0000                 CHD_0 =           0.0000     SSM             
                 CNC =           0.0000                   CNC =           0.0000     CNC             

            TOTAL IN =           0.0000              TOTAL IN =           0.0000

          OUT:                                     OUT:
          ----                                     ----
     STORAGE-AQUEOUS =           0.0000       STORAGE-AQUEOUS =           0.0000     MST             
               CHD_0 =           0.0000                 CHD_0 =           0.0000     SSM             
                 CNC =           0.0000                   CNC =           0.0000     CNC             

           TOTAL OUT =           0.0000             TOTAL OUT =           0.0000

            IN - OUT =           0.0000              IN - OUT =           0.0000

 PERCENT DISCREPANCY =           0.00     PERCENT DISCREPANCY =           0.00




         TIME SUMMARY AT END OF TIME STEP    1 IN STRESS PERIOD    3
                    SECONDS     MINUTES      HOURS       DAYS        YEARS
                    -----------------------------------------------------------
   TIME STEP LENGTH  300.00      5.0000     8.33333E-02 3.47222E-03 9.50643E-06
 STRESS PERIOD TIME  300.00      5.0000     8.33333E-02 3.47222E-03 9.50643E-06
         TOTAL TIME  900.00      15.000     0.25000     1.04167E-02 2.85193E-05


end timestep


start timestep kper="4" kstp="1" mode="normal"


 OUTPUT CONTROL FOR STRESS PERIOD 4 IS REPEATED USING SETTINGS FROM A PREVIOUS STRESS PERIOD.

 REUSING CNCS FROM LAST STRESS PERIOD
 UBDSV1 SAVING  STORAGE-AQUEOUS ON UNIT   1024 AT TIME STEP      1, STRESS PERIOD      4
 UBDSV1 SAVING     FLOW-JA-FACE ON UNIT   1024 AT TIME STEP      1, STRESS PERIOD      4
 UBDSV06 SAVING  SOURCE-SINK MIX IN MODEL SERIES2GWT       PACKAGE SERIES2GWT      CONNECTED TO MODEL SERIES2GWT       PACKAGE SSM              ON UNIT   1024 AT TIME STEP      1, STRESS PERIOD      4
 UBDSV06 SAVING              CNC IN MODEL SERIES2GWT       PACKAGE SERIES2GWT      CONNECTED TO MODEL SERIES2GWT       PACKAGE CNC              ON UNIT   1024 AT TIME STEP      1, STRESS PERIOD      4

 CONCENTRATION WILL BE SAVED ON UNIT 1025 AT END OF TIME STEP    1, STRESS PERIOD    4


  MASS BUDGET FOR ENTIRE MODEL AT END OF TIME STEP    1, STRESS PERIOD   4
  ---------------------------------------------------------------------------------------------------

     CUMULATIVE MASS      M       RATES FOR THIS TIME STEP      M/T          PACKAGE NAME    
     ------------------                 ------------------------                     ----------------

           IN:                                      IN:
           ---                                      ---
     STORAGE-AQUEOUS =           0.0000       STORAGE-AQUEOUS =           0.0000     MST             
               CHD_0 =           0.0000                 CHD_0 =           0.0000     SSM             
                 CNC =           0.0000                   CNC =           0.0000     CNC             

            TOTAL IN =           0.0000              TOTAL IN =           0.0000

          OUT:                                     OUT:
          ----                                     ----
     STORAGE-AQUEOUS =           0.0000       STORAGE-AQUEOUS =           0.0000     MST             
               CHD_0 =           0.0000                 CHD_0 =           0.0000     SSM             
                 CNC =           0.0000                   CNC =           0.0000     CNC             

           TOTAL OUT =           0.0000             TOTAL OUT =           0.0000

            IN - OUT =           0.0000              IN - OUT =           0.0000

 PERCENT DISCREPANCY =           0.00     PERCENT DISCREPANCY =           0.00




         TIME SUMMARY AT END OF TIME STEP    1 IN STRESS PERIOD    4
                    SECONDS     MINUTES      HOURS       DAYS        YEARS
                    -----------------------------------------------------------
   TIME STEP LENGTH  300.00      5.0000     8.33333E-02 3.47222E-03 9.50643E-06
 STRESS PERIOD TIME  300.00      5.0000     8.33333E-02 3.47222E-03 9.50643E-06
         TOTAL TIME  1200.0      20.000     0.33333     1.38889E-02 3.80257E-05


end timestep


start timestep kper="5" kstp="1" mode="normal"


 OUTPUT CONTROL FOR STRESS PERIOD 5 IS REPEATED USING SETTINGS FROM A PREVIOUS STRESS PERIOD.

 REUSING CNCS FROM LAST STRESS PERIOD
 UBDSV1 SAVING  STORAGE-AQUEOUS ON UNIT   1024 AT TIME STEP      1, STRESS PERIOD      5
 UBDSV1 SAVING     FLOW-JA-FACE ON UNIT   1024 AT TIME STEP      1, STRESS PERIOD      5
 UBDSV06 SAVING  SOURCE-SINK MIX IN MODEL SERIES2GWT       PACKAGE SERIES2GWT      CONNECTED TO MODEL SERIES2GWT       PACKAGE SSM              ON UNIT   1024 AT TIME STEP      1, STRESS PERIOD      5
 UBDSV06 SAVING              CNC IN MODEL SERIES2GWT       PACKAGE SERIES2GWT      CONNECTED TO MODEL SERIES2GWT       PACKAGE CNC              ON UNIT   1024 AT TIME STEP      1, STRESS PERIOD      5

 CONCENTRATION WILL BE SAVED ON UNIT 1025 AT END OF TIME STEP    1, STRESS PERIOD    5


  MASS BUDGET FOR ENTIRE MODEL AT END OF TIME STEP    1, STRESS PERIOD   5
  ---------------------------------------------------------------------------------------------------

     CUMULATIVE MASS      M       RATES FOR THIS TIME STEP      M/T          PACKAGE NAME    
     ------------------                 ------------------------                     ----------------

           IN:                                      IN:
           ---                                      ---
     STORAGE-AQUEOUS =           0.0000       STORAGE-AQUEOUS =           0.0000     MST             
               CHD_0 =           0.0000                 CHD_0 =           0.0000     SSM             
                 CNC =           0.0000                   CNC =           0.0000     CNC             

            TOTAL IN =           0.0000              TOTAL IN =           0.0000

          OUT:                                     OUT:
          ----                                     ----
     STORAGE-AQUEOUS =           0.0000       STORAGE-AQUEOUS =           0.0000     MST             
               CHD_0 =           0.0000                 CHD_0 =           0.0000     SSM             
                 CNC =           0.0000                   CNC =           0.0000     CNC             

           TOTAL OUT =           0.0000             TOTAL OUT =           0.0000

            IN - OUT =           0.0000              IN - OUT =           0.0000

 PERCENT DISCREPANCY =           0.00     PERCENT DISCREPANCY =           0.00




         TIME SUMMARY AT END OF TIME STEP    1 IN STRESS PERIOD    5
                    SECONDS     MINUTES      HOURS       DAYS        YEARS
                    -----------------------------------------------------------
   TIME STEP LENGTH  300.00      5.0000     8.33333E-02 3.47222E-03 9.50643E-06
 STRESS PERIOD TIME  300.00      5.0000     8.33333E-02 3.47222E-03 9.50643E-06
         TOTAL TIME  1500.0      25.000     0.41667     1.73611E-02 4.75321E-05


end timestep


start timestep kper="6" kstp="1" mode="normal"


 OUTPUT CONTROL FOR STRESS PERIOD 6 IS REPEATED USING SETTINGS FROM A PREVIOUS STRESS PERIOD.

 REUSING CNCS FROM LAST STRESS PERIOD
 UBDSV1 SAVING  STORAGE-AQUEOUS ON UNIT   1024 AT TIME STEP      1, STRESS PERIOD      6
 UBDSV1 SAVING     FLOW-JA-FACE ON UNIT   1024 AT TIME STEP      1, STRESS PERIOD      6
 UBDSV06 SAVING  SOURCE-SINK MIX IN MODEL SERIES2GWT       PACKAGE SERIES2GWT      CONNECTED TO MODEL SERIES2GWT       PACKAGE SSM              ON UNIT   1024 AT TIME STEP      1, STRESS PERIOD      6
 UBDSV06 SAVING              CNC IN MODEL SERIES2GWT       PACKAGE SERIES2GWT      CONNECTED TO MODEL SERIES2GWT       PACKAGE CNC              ON UNIT   1024 AT TIME STEP      1, STRESS PERIOD      6

 CONCENTRATION WILL BE SAVED ON UNIT 1025 AT END OF TIME STEP    1, STRESS PERIOD    6


  MASS BUDGET FOR ENTIRE MODEL AT END OF TIME STEP    1, STRESS PERIOD   6
  ---------------------------------------------------------------------------------------------------

     CUMULATIVE MASS      M       RATES FOR THIS TIME STEP      M/T          PACKAGE NAME    
     ------------------                 ------------------------                     ----------------

           IN:                                      IN:
           ---                                      ---
     STORAGE-AQUEOUS =           0.0000       STORAGE-AQUEOUS =           0.0000     MST             
               CHD_0 =           0.0000                 CHD_0 =           0.0000     SSM             
                 CNC =           0.0000                   CNC =           0.0000     CNC             

            TOTAL IN =           0.0000              TOTAL IN =           0.0000

          OUT:                                     OUT:
          ----                                     ----
     STORAGE-AQUEOUS =           0.0000       STORAGE-AQUEOUS =           0.0000     MST             
               CHD_0 =           0.0000                 CHD_0 =           0.0000     SSM             
                 CNC =           0.0000                   CNC =           0.0000     CNC             

           TOTAL OUT =           0.0000             TOTAL OUT =           0.0000

            IN - OUT =           0.0000              IN - OUT =           0.0000

 PERCENT DISCREPANCY =           0.00     PERCENT DISCREPANCY =           0.00




         TIME SUMMARY AT END OF TIME STEP    1 IN STRESS PERIOD    6
                    SECONDS     MINUTES      HOURS       DAYS        YEARS
                    -----------------------------------------------------------
   TIME STEP LENGTH  300.00      5.0000     8.33333E-02 3.47222E-03 9.50643E-06
 STRESS PERIOD TIME  300.00      5.0000     8.33333E-02 3.47222E-03 9.50643E-06
         TOTAL TIME  1800.0      30.000     0.50000     2.08333E-02 5.70386E-05


end timestep


start timestep kper="7" kstp="1" mode="normal"


 OUTPUT CONTROL FOR STRESS PERIOD 7 IS REPEATED USING SETTINGS FROM A PREVIOUS STRESS PERIOD.

 REUSING CNCS FROM LAST STRESS PERIOD
 UBDSV1 SAVING  STORAGE-AQUEOUS ON UNIT   1024 AT TIME STEP      1, STRESS PERIOD      7
 UBDSV1 SAVING     FLOW-JA-FACE ON UNIT   1024 AT TIME STEP      1, STRESS PERIOD      7
 UBDSV06 SAVING  SOURCE-SINK MIX IN MODEL SERIES2GWT       PACKAGE SERIES2GWT      CONNECTED TO MODEL SERIES2GWT       PACKAGE SSM              ON UNIT   1024 AT TIME STEP      1, STRESS PERIOD      7
 UBDSV06 SAVING              CNC IN MODEL SERIES2GWT       PACKAGE SERIES2GWT      CONNECTED TO MODEL SERIES2GWT       PACKAGE CNC              ON UNIT   1024 AT TIME STEP      1, STRESS PERIOD      7

 CONCENTRATION WILL BE SAVED ON UNIT 1025 AT END OF TIME STEP    1, STRESS PERIOD    7


  MASS BUDGET FOR ENTIRE MODEL AT END OF TIME STEP    1, STRESS PERIOD   7
  ---------------------------------------------------------------------------------------------------

     CUMULATIVE MASS      M       RATES FOR THIS TIME STEP      M/T          PACKAGE NAME    
     ------------------                 ------------------------                     ----------------

           IN:                                      IN:
           ---                                      ---
     STORAGE-AQUEOUS =           0.0000       STORAGE-AQUEOUS =           0.0000     MST             
               CHD_0 =           0.0000                 CHD_0 =           0.0000     SSM             
                 CNC =           0.0000                   CNC =           0.0000     CNC             

            TOTAL IN =           0.0000              TOTAL IN =           0.0000

          OUT:                                     OUT:
          ----                                     ----
     STORAGE-AQUEOUS =           0.0000       STORAGE-AQUEOUS =           0.0000     MST             
               CHD_0 =           0.0000                 CHD_0 =           0.0000     SSM             
                 CNC =           0.0000                   CNC =           0.0000     CNC             

           TOTAL OUT =           0.0000             TOTAL OUT =           0.0000

            IN - OUT =           0.0000              IN - OUT =           0.0000

 PERCENT DISCREPANCY =           0.00     PERCENT DISCREPANCY =           0.00




         TIME SUMMARY AT END OF TIME STEP    1 IN STRESS PERIOD    7
                    SECONDS     MINUTES      HOURS       DAYS        YEARS
                    -----------------------------------------------------------
   TIME STEP LENGTH  300.00      5.0000     8.33333E-02 3.47222E-03 9.50643E-06
 STRESS PERIOD TIME  300.00      5.0000     8.33333E-02 3.47222E-03 9.50643E-06
         TOTAL TIME  2100.0      35.000     0.58333     2.43056E-02 6.65450E-05


end timestep


start timestep kper="8" kstp="1" mode="normal"


 OUTPUT CONTROL FOR STRESS PERIOD 8 IS REPEATED USING SETTINGS FROM A PREVIOUS STRESS PERIOD.

 REUSING CNCS FROM LAST STRESS PERIOD
 UBDSV1 SAVING  STORAGE-AQUEOUS ON UNIT   1024 AT TIME STEP      1, STRESS PERIOD      8
 UBDSV1 SAVING     FLOW-JA-FACE ON UNIT   1024 AT TIME STEP      1, STRESS PERIOD      8
 UBDSV06 SAVING  SOURCE-SINK MIX IN MODEL SERIES2GWT       PACKAGE SERIES2GWT      CONNECTED TO MODEL SERIES2GWT       PACKAGE SSM              ON UNIT   1024 AT TIME STEP      1, STRESS PERIOD      8
 UBDSV06 SAVING              CNC IN MODEL SERIES2GWT       PACKAGE SERIES2GWT      CONNECTED TO MODEL SERIES2GWT       PACKAGE CNC              ON UNIT   1024 AT TIME STEP      1, STRESS PERIOD      8

 CONCENTRATION WILL BE SAVED ON UNIT 1025 AT END OF TIME STEP    1, STRESS PERIOD    8


  MASS BUDGET FOR ENTIRE MODEL AT END OF TIME STEP    1, STRESS PERIOD   8
  ---------------------------------------------------------------------------------------------------

     CUMULATIVE MASS      M       RATES FOR THIS TIME STEP      M/T          PACKAGE NAME    
     ------------------                 ------------------------                     ----------------

           IN:                                      IN:
           ---                                      ---
     STORAGE-AQUEOUS =           0.0000       STORAGE-AQUEOUS =           0.0000     MST             
               CHD_0 =           0.0000                 CHD_0 =           0.0000     SSM             
                 CNC =           0.0000                   CNC =           0.0000     CNC             

            TOTAL IN =           0.0000              TOTAL IN =           0.0000

          OUT:                                     OUT:
          ----                                     ----
     STORAGE-AQUEOUS =           0.0000       STORAGE-AQUEOUS =           0.0000     MST             
               CHD_0 =           0.0000                 CHD_0 =           0.0000     SSM             
                 CNC =           0.0000                   CNC =           0.0000     CNC             

           TOTAL OUT =           0.0000             TOTAL OUT =           0.0000

            IN - OUT =           0.0000              IN - OUT =           0.0000

 PERCENT DISCREPANCY =           0.00     PERCENT DISCREPANCY =           0.00




         TIME SUMMARY AT END OF TIME STEP    1 IN STRESS PERIOD    8
                    SECONDS     MINUTES      HOURS       DAYS        YEARS
                    -----------------------------------------------------------
   TIME STEP LENGTH  300.00      5.0000     8.33333E-02 3.47222E-03 9.50643E-06
 STRESS PERIOD TIME  300.00      5.0000     8.33333E-02 3.47222E-03 9.50643E-06
         TOTAL TIME  2400.0      40.000     0.66667     2.77778E-02 7.60514E-05


end timestep


start timestep kper="9" kstp="1" mode="normal"


 OUTPUT CONTROL FOR STRESS PERIOD 9 IS REPEATED USING SETTINGS FROM A PREVIOUS STRESS PERIOD.
 UBDSV1 SAVING  STORAGE-AQUEOUS ON UNIT   1024 AT TIME STEP      1, STRESS PERIOD      9
 UBDSV1 SAVING     FLOW-JA-FACE ON UNIT   1024 AT TIME STEP      1, STRESS PERIOD      9
 UBDSV06 SAVING  SOURCE-SINK MIX IN MODEL SERIES2GWT       PACKAGE SERIES2GWT      CONNECTED TO MODEL SERIES2GWT       PACKAGE SSM              ON UNIT   1024 AT TIME STEP      1, STRESS PERIOD      9
 UBDSV06 SAVING              CNC IN MODEL SERIES2GWT       PACKAGE SERIES2GWT      CONNECTED TO MODEL SERIES2GWT       PACKAGE CNC              ON UNIT   1024 AT TIME STEP      1, STRESS PERIOD      9

 CONCENTRATION WILL BE SAVED ON UNIT 1025 AT END OF TIME STEP    1, STRESS PERIOD    9


  MASS BUDGET FOR ENTIRE MODEL AT END OF TIME STEP    1, STRESS PERIOD   9
  ---------------------------------------------------------------------------------------------------

     CUMULATIVE MASS      M       RATES FOR THIS TIME STEP      M/T          PACKAGE NAME    
     ------------------                 ------------------------                     ----------------

           IN:                                      IN:
           ---                                      ---
     STORAGE-AQUEOUS =       1.3101E-03       STORAGE-AQUEOUS =       2.6202E-04     MST             
               CHD_0 =           0.0000                 CHD_0 =           0.0000     SSM             
                 CNC =          14.6603                   CNC =           2.9321     CNC             

            TOTAL IN =          14.6617              TOTAL IN =           2.9323

          OUT:                                     OUT:
          ----                                     ----
     STORAGE-AQUEOUS =          14.6425       STORAGE-AQUEOUS =           2.9285     MST             
               CHD_0 =       1.1622E-02                 CHD_0 =       2.3243E-03     SSM             
                 CNC =           0.0000                   CNC =           0.0000     CNC             

           TOTAL OUT =          14.6542             TOTAL OUT =           2.9308

            IN - OUT =       7.4830E-03              IN - OUT =       1.4966E-03

 PERCENT DISCREPANCY =           0.05     PERCENT DISCREPANCY =           0.05




         TIME SUMMARY AT END OF TIME STEP    1 IN STRESS PERIOD    9
                    SECONDS     MINUTES      HOURS       DAYS        YEARS
                    -----------------------------------------------------------
   TIME STEP LENGTH  300.00      5.0000     8.33333E-02 3.47222E-03 9.50643E-06
 STRESS PERIOD TIME  300.00      5.0000     8.33333E-02 3.47222E-03 9.50643E-06
         TOTAL TIME  2700.0      45.000     0.75000     3.12500E-02 8.55578E-05


end timestep


start timestep kper="10" kstp="1" mode="normal"


 OUTPUT CONTROL FOR STRESS PERIOD 10 IS REPEATED USING SETTINGS FROM A PREVIOUS STRESS PERIOD.

 REUSING CNCS FROM LAST STRESS PERIOD
 UBDSV1 SAVING  STORAGE-AQUEOUS ON UNIT   1024 AT TIME STEP      1, STRESS PERIOD     10
 UBDSV1 SAVING     FLOW-JA-FACE ON UNIT   1024 AT TIME STEP      1, STRESS PERIOD     10
 UBDSV06 SAVING  SOURCE-SINK MIX IN MODEL SERIES2GWT       PACKAGE SERIES2GWT      CONNECTED TO MODEL SERIES2GWT       PACKAGE SSM              ON UNIT   1024 AT TIME STEP      1, STRESS PERIOD     10
 UBDSV06 SAVING              CNC IN MODEL SERIES2GWT       PACKAGE SERIES2GWT      CONNECTED TO MODEL SERIES2GWT       PACKAGE CNC              ON UNIT   1024 AT TIME STEP      1, STRESS PERIOD     10

 CONCENTRATION WILL BE SAVED ON UNIT 1025 AT END OF TIME STEP    1, STRESS PERIOD   10


  MASS BUDGET FOR ENTIRE MODEL AT END OF TIME STEP    1, STRESS PERIOD  10
  ---------------------------------------------------------------------------------------------------

     CUMULATIVE MASS      M       RATES FOR THIS TIME STEP      M/T          PACKAGE NAME    
     ------------------                 ------------------------                     ----------------

           IN:                                      IN:
           ---                                      ---
     STORAGE-AQUEOUS =       1.6174E-03       STORAGE-AQUEOUS =       6.1464E-05     MST             
               CHD_0 =           0.0000                 CHD_0 =           0.0000     SSM             
                 CNC =          28.0723                   CNC =           2.6824     CNC             

            TOTAL IN =          28.0739              TOTAL IN =           2.6824

          OUT:                                     OUT:
          ----                                     ----
     STORAGE-AQUEOUS =          27.9698       STORAGE-AQUEOUS =           2.6655     MST             
               CHD_0 =       8.9460E-02                 CHD_0 =       1.5568E-02     SSM             
                 CNC =           0.0000                   CNC =           0.0000     CNC             

           TOTAL OUT =          28.0593             TOTAL OUT =           2.6810

            IN - OUT =       1.4581E-02              IN - OUT =       1.4196E-03

 PERCENT DISCREPANCY =           0.05     PERCENT DISCREPANCY =           0.05




         TIME SUMMARY AT END OF TIME STEP    1 IN STRESS PERIOD   10
                    SECONDS     MINUTES      HOURS       DAYS        YEARS
                    -----------------------------------------------------------
   TIME STEP LENGTH  300.00      5.0000     8.33333E-02 3.47222E-03 9.50643E-06
 STRESS PERIOD TIME  300.00      5.0000     8.33333E-02 3.47222E-03 9.50643E-06
         TOTAL TIME  3000.0      50.000     0.83333     3.47222E-02 9.50643E-05


end timestep


start timestep kper="11" kstp="1" mode="normal"


 OUTPUT CONTROL FOR STRESS PERIOD 11 IS REPEATED USING SETTINGS FROM A PREVIOUS STRESS PERIOD.

 REUSING CNCS FROM LAST STRESS PERIOD
 UBDSV1 SAVING  STORAGE-AQUEOUS ON UNIT   1024 AT TIME STEP      1, STRESS PERIOD     11
 UBDSV1 SAVING     FLOW-JA-FACE ON UNIT   1024 AT TIME STEP      1, STRESS PERIOD     11
 UBDSV06 SAVING  SOURCE-SINK MIX IN MODEL SERIES2GWT       PACKAGE SERIES2GWT      CONNECTED TO MODEL SERIES2GWT       PACKAGE SSM              ON UNIT   1024 AT TIME STEP      1, STRESS PERIOD     11
 UBDSV06 SAVING              CNC IN MODEL SERIES2GWT       PACKAGE SERIES2GWT      CONNECTED TO MODEL SERIES2GWT       PACKAGE CNC              ON UNIT   1024 AT TIME STEP      1, STRESS PERIOD     11

 CONCENTRATION WILL BE SAVED ON UNIT 1025 AT END OF TIME STEP    1, STRESS PERIOD   11


  MASS BUDGET FOR ENTIRE MODEL AT END OF TIME STEP    1, STRESS PERIOD  11
  ---------------------------------------------------------------------------------------------------

     CUMULATIVE MASS      M       RATES FOR THIS TIME STEP      M/T          PACKAGE NAME    
     ------------------                 ------------------------                     ----------------

           IN:                                      IN:
           ---                                      ---
     STORAGE-AQUEOUS =       2.3758E-03       STORAGE-AQUEOUS =       1.5167E-04     MST             
               CHD_0 =           0.0000                 CHD_0 =           0.0000     SSM             
                 CNC =          41.2740                   CNC =           2.6403     CNC             

            TOTAL IN =          41.2763              TOTAL IN =           2.6405

          OUT:                                     OUT:
          ----                                     ----
     STORAGE-AQUEOUS =          40.8995       STORAGE-AQUEOUS =           2.5859     MST             
               CHD_0 =           0.3625                 CHD_0 =       5.4598E-02     SSM             
                 CNC =           0.0000                   CNC =           0.0000     CNC             

           TOTAL OUT =          41.2620             TOTAL OUT =           2.6405

            IN - OUT =       1.4344E-02              IN - OUT =       4.7430E-05

 PERCENT DISCREPANCY =           0.03     PERCENT DISCREPANCY =          -0.00




         TIME SUMMARY AT END OF TIME STEP    1 IN STRESS PERIOD   11
                    SECONDS     MINUTES      HOURS       DAYS        YEARS
                    -----------------------------------------------------------
   TIME STEP LENGTH  300.00      5.0000     8.33333E-02 3.47222E-03 9.50643E-06
 STRESS PERIOD TIME  300.00      5.0000     8.33333E-02 3.47222E-03 9.50643E-06
         TOTAL TIME  3300.0      55.000     0.91667     3.81944E-02 1.04571E-04


end timestep


start timestep kper="12" kstp="1" mode="normal"


 OUTPUT CONTROL FOR STRESS PERIOD 12 IS REPEATED USING SETTINGS FROM A PREVIOUS STRESS PERIOD.

 REUSING CNCS FROM LAST STRESS PERIOD
 UBDSV1 SAVING  STORAGE-AQUEOUS ON UNIT   1024 AT TIME STEP      1, STRESS PERIOD     12
 UBDSV1 SAVING     FLOW-JA-FACE ON UNIT   1024 AT TIME STEP      1, STRESS PERIOD     12
 UBDSV06 SAVING  SOURCE-SINK MIX IN MODEL SERIES2GWT       PACKAGE SERIES2GWT      CONNECTED TO MODEL SERIES2GWT       PACKAGE SSM              ON UNIT   1024 AT TIME STEP      1, STRESS PERIOD     12
 UBDSV06 SAVING              CNC IN MODEL SERIES2GWT       PACKAGE SERIES2GWT      CONNECTED TO MODEL SERIES2GWT       PACKAGE CNC              ON UNIT   1024 AT TIME STEP      1, STRESS PERIOD     12

 CONCENTRATION WILL BE SAVED ON UNIT 1025 AT END OF TIME STEP    1, STRESS PERIOD   12


  MASS BUDGET FOR ENTIRE MODEL AT END OF TIME STEP    1, STRESS PERIOD  12
  ---------------------------------------------------------------------------------------------------

     CUMULATIVE MASS      M       RATES FOR THIS TIME STEP      M/T          PACKAGE NAME    
     ------------------                 ------------------------                     ----------------

           IN:                                      IN:
           ---                                      ---
     STORAGE-AQUEOUS =       2.5470E-03       STORAGE-AQUEOUS =       3.4238E-05     MST             
               CHD_0 =           0.0000                 CHD_0 =           0.0000     SSM             
                 CNC =          54.4249                   CNC =           2.6302     CNC             

            TOTAL IN =          54.4274              TOTAL IN =           2.6302

          OUT:                                     OUT:
          ----                                     ----
     STORAGE-AQUEOUS =          53.3735       STORAGE-AQUEOUS =           2.4948     MST             
               CHD_0 =           1.0396                 CHD_0 =           0.1354     SSM             
                 CNC =           0.0000                   CNC =           0.0000     CNC             

           TOTAL OUT =          54.4131             TOTAL OUT =           2.6302

            IN - OUT =       1.4291E-02              IN - OUT =       1.0622E-05

 PERCENT DISCREPANCY =           0.03     PERCENT DISCREPANCY =          -0.00




         TIME SUMMARY AT END OF TIME STEP    1 IN STRESS PERIOD   12
                    SECONDS     MINUTES      HOURS       DAYS        YEARS
                    -----------------------------------------------------------
   TIME STEP LENGTH  300.00      5.0000     8.33333E-02 3.47222E-03 9.50643E-06
 STRESS PERIOD TIME  300.00      5.0000     8.33333E-02 3.47222E-03 9.50643E-06
         TOTAL TIME  3600.0      60.000      1.0000     4.16667E-02 1.14077E-04


end timestep


start timestep kper="13" kstp="1" mode="normal"


 OUTPUT CONTROL FOR STRESS PERIOD 13 IS REPEATED USING SETTINGS FROM A PREVIOUS STRESS PERIOD.

 REUSING CNCS FROM LAST STRESS PERIOD
 UBDSV1 SAVING  STORAGE-AQUEOUS ON UNIT   1024 AT TIME STEP      1, STRESS PERIOD     13
 UBDSV1 SAVING     FLOW-JA-FACE ON UNIT   1024 AT TIME STEP      1, STRESS PERIOD     13
 UBDSV06 SAVING  SOURCE-SINK MIX IN MODEL SERIES2GWT       PACKAGE SERIES2GWT      CONNECTED TO MODEL SERIES2GWT       PACKAGE SSM              ON UNIT   1024 AT TIME STEP      1, STRESS PERIOD     13
 UBDSV06 SAVING              CNC IN MODEL SERIES2GWT       PACKAGE SERIES2GWT      CONNECTED TO MODEL SERIES2GWT       PACKAGE CNC              ON UNIT   1024 AT TIME STEP      1, STRESS PERIOD     13

 CONCENTRATION WILL BE SAVED ON UNIT 1025 AT END OF TIME STEP    1, STRESS PERIOD   13


  MASS BUDGET FOR ENTIRE MODEL AT END OF TIME STEP    1, STRESS PERIOD  13
  ---------------------------------------------------------------------------------------------------

     CUMULATIVE MASS      M       RATES FOR THIS TIME STEP      M/T          PACKAGE NAME    
     ------------------                 ------------------------                     ----------------

           IN:                                      IN:
           ---                                      ---
     STORAGE-AQUEOUS =       2.6655E-03       STORAGE-AQUEOUS =       2.3693E-05     MST             
               CHD_0 =           0.0000                 CHD_0 =           0.0000     SSM             
                 CNC =          67.5622                   CNC =           2.6275     CNC             

            TOTAL IN =          67.5649              TOTAL IN =           2.6275

          OUT:                                     OUT:
          ----                                     ----
     STORAGE-AQUEOUS =          65.1735       STORAGE-AQUEOUS =           2.3600     MST             
               CHD_0 =           2.3711                 CHD_0 =           0.2663     SSM             
                 CNC =           0.0000                   CNC =           0.0000     CNC             

           TOTAL OUT =          67.5445             TOTAL OUT =           2.6263

            IN - OUT =       2.0308E-02              IN - OUT =       1.2034E-03

 PERCENT DISCREPANCY =           0.03     PERCENT DISCREPANCY =           0.05




         TIME SUMMARY AT END OF TIME STEP    1 IN STRESS PERIOD   13
                    SECONDS     MINUTES      HOURS       DAYS        YEARS
                    -----------------------------------------------------------
   TIME STEP LENGTH  300.00      5.0000     8.33333E-02 3.47222E-03 9.50643E-06
 STRESS PERIOD TIME  300.00      5.0000     8.33333E-02 3.47222E-03 9.50643E-06
         TOTAL TIME  3900.0      65.000      1.0833     4.51389E-02 1.23584E-04


end timestep


start timestep kper="14" kstp="1" mode="normal"


 OUTPUT CONTROL FOR STRESS PERIOD 14 IS REPEATED USING SETTINGS FROM A PREVIOUS STRESS PERIOD.

 REUSING CNCS FROM LAST STRESS PERIOD
 UBDSV1 SAVING  STORAGE-AQUEOUS ON UNIT   1024 AT TIME STEP      1, STRESS PERIOD     14
 UBDSV1 SAVING     FLOW-JA-FACE ON UNIT   1024 AT TIME STEP      1, STRESS PERIOD     14
 UBDSV06 SAVING  SOURCE-SINK MIX IN MODEL SERIES2GWT       PACKAGE SERIES2GWT      CONNECTED TO MODEL SERIES2GWT       PACKAGE SSM              ON UNIT   1024 AT TIME STEP      1, STRESS PERIOD     14
 UBDSV06 SAVING              CNC IN MODEL SERIES2GWT       PACKAGE SERIES2GWT      CONNECTED TO MODEL SERIES2GWT       PACKAGE CNC              ON UNIT   1024 AT TIME STEP      1, STRESS PERIOD     14

 CONCENTRATION WILL BE SAVED ON UNIT 1025 AT END OF TIME STEP    1, STRESS PERIOD   14


  MASS BUDGET FOR ENTIRE MODEL AT END OF TIME STEP    1, STRESS PERIOD  14
  ---------------------------------------------------------------------------------------------------

     CUMULATIVE MASS      M       RATES FOR THIS TIME STEP      M/T          PACKAGE NAME    
     ------------------                 ------------------------                     ----------------

           IN:                                      IN:
           ---                                      ---
     STORAGE-AQUEOUS =       2.8055E-03       STORAGE-AQUEOUS =       2.8008E-05     MST             
               CHD_0 =           0.0000                 CHD_0 =           0.0000     SSM             
                 CNC =          80.6979                   CNC =           2.6271     CNC             

            TOTAL IN =          80.7007              TOTAL IN =           2.6272

          OUT:                                     OUT:
          ----                                     ----
     STORAGE-AQUEOUS =          76.1004       STORAGE-AQUEOUS =           2.1854     MST             
               CHD_0 =           4.5720                 CHD_0 =           0.4402     SSM             
                 CNC =           0.0000                   CNC =           0.0000     CNC             

           TOTAL OUT =          80.6724             TOTAL OUT =           2.6256

            IN - OUT =       2.8274E-02              IN - OUT =       1.5933E-03

 PERCENT DISCREPANCY =           0.04     PERCENT DISCREPANCY =           0.06




         TIME SUMMARY AT END OF TIME STEP    1 IN STRESS PERIOD   14
                    SECONDS     MINUTES      HOURS       DAYS        YEARS
                    -----------------------------------------------------------
   TIME STEP LENGTH  300.00      5.0000     8.33333E-02 3.47222E-03 9.50643E-06
 STRESS PERIOD TIME  300.00      5.0000     8.33333E-02 3.47222E-03 9.50643E-06
         TOTAL TIME  4200.0      70.000      1.1667     4.86111E-02 1.33090E-04


end timestep


start timestep kper="15" kstp="1" mode="normal"


 OUTPUT CONTROL FOR STRESS PERIOD 15 IS REPEATED USING SETTINGS FROM A PREVIOUS STRESS PERIOD.

 REUSING CNCS FROM LAST STRESS PERIOD
 UBDSV1 SAVING  STORAGE-AQUEOUS ON UNIT   1024 AT TIME STEP      1, STRESS PERIOD     15
 UBDSV1 SAVING     FLOW-JA-FACE ON UNIT   1024 AT TIME STEP      1, STRESS PERIOD     15
 UBDSV06 SAVING  SOURCE-SINK MIX IN MODEL SERIES2GWT       PACKAGE SERIES2GWT      CONNECTED TO MODEL SERIES2GWT       PACKAGE SSM              ON UNIT   1024 AT TIME STEP      1, STRESS PERIOD     15
 UBDSV06 SAVING              CNC IN MODEL SERIES2GWT       PACKAGE SERIES2GWT      CONNECTED TO MODEL SERIES2GWT       PACKAGE CNC              ON UNIT   1024 AT TIME STEP      1, STRESS PERIOD     15

 CONCENTRATION WILL BE SAVED ON UNIT 1025 AT END OF TIME STEP    1, STRESS PERIOD   15


  MASS BUDGET FOR ENTIRE MODEL AT END OF TIME STEP    1, STRESS PERIOD  15
  ---------------------------------------------------------------------------------------------------

     CUMULATIVE MASS      M       RATES FOR THIS TIME STEP      M/T          PACKAGE NAME    
     ------------------                 ------------------------                     ----------------

           IN:                                      IN:
           ---                                      ---
     STORAGE-AQUEOUS =       2.9146E-03       STORAGE-AQUEOUS =       2.1822E-05     MST             
               CHD_0 =           0.0000                 CHD_0 =           0.0000     SSM             
                 CNC =          93.8341                   CNC =           2.6272     CNC             

            TOTAL IN =          93.8370              TOTAL IN =           2.6273

          OUT:                                     OUT:
          ----                                     ----
     STORAGE-AQUEOUS =          85.9925       STORAGE-AQUEOUS =           1.9784     MST             
               CHD_0 =           7.8003                 CHD_0 =           0.6457     SSM             
                 CNC =           0.0000                   CNC =           0.0000     CNC             

           TOTAL OUT =          93.7929             TOTAL OUT =           2.6241

            IN - OUT =       4.4152E-02              IN - OUT =       3.1755E-03

 PERCENT DISCREPANCY =           0.05     PERCENT DISCREPANCY =           0.12




         TIME SUMMARY AT END OF TIME STEP    1 IN STRESS PERIOD   15
                    SECONDS     MINUTES      HOURS       DAYS        YEARS
                    -----------------------------------------------------------
   TIME STEP LENGTH  300.00      5.0000     8.33333E-02 3.47222E-03 9.50643E-06
 STRESS PERIOD TIME  300.00      5.0000     8.33333E-02 3.47222E-03 9.50643E-06
         TOTAL TIME  4500.0      75.000      1.2500     5.20833E-02 1.42596E-04


end timestep


start timestep kper="16" kstp="1" mode="normal"


 OUTPUT CONTROL FOR STRESS PERIOD 16 IS REPEATED USING SETTINGS FROM A PREVIOUS STRESS PERIOD.

 REUSING CNCS FROM LAST STRESS PERIOD
 UBDSV1 SAVING  STORAGE-AQUEOUS ON UNIT   1024 AT TIME STEP      1, STRESS PERIOD     16
 UBDSV1 SAVING     FLOW-JA-FACE ON UNIT   1024 AT TIME STEP      1, STRESS PERIOD     16
 UBDSV06 SAVING  SOURCE-SINK MIX IN MODEL SERIES2GWT       PACKAGE SERIES2GWT      CONNECTED TO MODEL SERIES2GWT       PACKAGE SSM              ON UNIT   1024 AT TIME STEP      1, STRESS PERIOD     16
 UBDSV06 SAVING              CNC IN MODEL SERIES2GWT       PACKAGE SERIES2GWT      CONNECTED TO MODEL SERIES2GWT       PACKAGE CNC              ON UNIT   1024 AT TIME STEP      1, STRESS PERIOD     16

 CONCENTRATION WILL BE SAVED ON UNIT 1025 AT END OF TIME STEP    1, STRESS PERIOD   16


  MASS BUDGET FOR ENTIRE MODEL AT END OF TIME STEP    1, STRESS PERIOD  16
  ---------------------------------------------------------------------------------------------------

     CUMULATIVE MASS      M       RATES FOR THIS TIME STEP      M/T          PACKAGE NAME    
     ------------------                 ------------------------                     ----------------

           IN:                                      IN:
           ---                                      ---
     STORAGE-AQUEOUS =       2.9555E-03       STORAGE-AQUEOUS =       8.1860E-06     MST             
               CHD_0 =           0.0000                 CHD_0 =           0.0000     SSM             
                 CNC =         106.9728                   CNC =           2.6277     CNC             

            TOTAL IN =         106.9757              TOTAL IN =           2.6277

          OUT:                                     OUT:
          ----                                     ----
     STORAGE-AQUEOUS =          94.8039       STORAGE-AQUEOUS =           1.7623     MST             
               CHD_0 =          12.1207                 CHD_0 =           0.8641     SSM             
                 CNC =           0.0000                   CNC =           0.0000     CNC             

           TOTAL OUT =         106.9245             TOTAL OUT =           2.6263

            IN - OUT =       5.1191E-02              IN - OUT =       1.4077E-03

 PERCENT DISCREPANCY =           0.05     PERCENT DISCREPANCY =           0.05




         TIME SUMMARY AT END OF TIME STEP    1 IN STRESS PERIOD   16
                    SECONDS     MINUTES      HOURS       DAYS        YEARS
                    -----------------------------------------------------------
   TIME STEP LENGTH  300.00      5.0000     8.33333E-02 3.47222E-03 9.50643E-06
 STRESS PERIOD TIME  300.00      5.0000     8.33333E-02 3.47222E-03 9.50643E-06
         TOTAL TIME  4800.0      80.000      1.3333     5.55556E-02 1.52103E-04


end timestep


start timestep kper="17" kstp="1" mode="normal"


 OUTPUT CONTROL FOR STRESS PERIOD 17 IS REPEATED USING SETTINGS FROM A PREVIOUS STRESS PERIOD.

 REUSING CNCS FROM LAST STRESS PERIOD
 UBDSV1 SAVING  STORAGE-AQUEOUS ON UNIT   1024 AT TIME STEP      1, STRESS PERIOD     17
 UBDSV1 SAVING     FLOW-JA-FACE ON UNIT   1024 AT TIME STEP      1, STRESS PERIOD     17
 UBDSV06 SAVING  SOURCE-SINK MIX IN MODEL SERIES2GWT       PACKAGE SERIES2GWT      CONNECTED TO MODEL SERIES2GWT       PACKAGE SSM              ON UNIT   1024 AT TIME STEP      1, STRESS PERIOD     17
 UBDSV06 SAVING              CNC IN MODEL SERIES2GWT       PACKAGE SERIES2GWT      CONNECTED TO MODEL SERIES2GWT       PACKAGE CNC              ON UNIT   1024 AT TIME STEP      1, STRESS PERIOD     17

 CONCENTRATION WILL BE SAVED ON UNIT 1025 AT END OF TIME STEP    1, STRESS PERIOD   17


  MASS BUDGET FOR ENTIRE MODEL AT END OF TIME STEP    1, STRESS PERIOD  17
  ---------------------------------------------------------------------------------------------------

     CUMULATIVE MASS      M       RATES FOR THIS TIME STEP      M/T          PACKAGE NAME    
     ------------------                 ------------------------                     ----------------

           IN:                                      IN:
           ---                                      ---
     STORAGE-AQUEOUS =       3.0310E-03       STORAGE-AQUEOUS =       1.5103E-05     MST             
               CHD_0 =           0.0000                 CHD_0 =           0.0000     SSM             
                 CNC =         120.1143                   CNC =           2.6283     CNC             

            TOTAL IN =         120.1174              TOTAL IN =           2.6283

          OUT:                                     OUT:
          ----                                     ----
     STORAGE-AQUEOUS =         102.5563       STORAGE-AQUEOUS =           1.5505     MST             
               CHD_0 =          17.4967                 CHD_0 =           1.0752     SSM             
                 CNC =           0.0000                   CNC =           0.0000     CNC             

           TOTAL OUT =         120.0530             TOTAL OUT =           2.6257

            IN - OUT =       6.4330E-02              IN - OUT =       2.6280E-03

 PERCENT DISCREPANCY =           0.05     PERCENT DISCREPANCY =           0.10




         TIME SUMMARY AT END OF TIME STEP    1 IN STRESS PERIOD   17
                    SECONDS     MINUTES      HOURS       DAYS        YEARS
                    -----------------------------------------------------------
   TIME STEP LENGTH  300.00      5.0000     8.33333E-02 3.47222E-03 9.50643E-06
 STRESS PERIOD TIME  300.00      5.0000     8.33333E-02 3.47222E-03 9.50643E-06
         TOTAL TIME  5100.0      85.000      1.4167     5.90278E-02 1.61609E-04


end timestep


start timestep kper="18" kstp="1" mode="normal"


 OUTPUT CONTROL FOR STRESS PERIOD 18 IS REPEATED USING SETTINGS FROM A PREVIOUS STRESS PERIOD.

 REUSING CNCS FROM LAST STRESS PERIOD
 UBDSV1 SAVING  STORAGE-AQUEOUS ON UNIT   1024 AT TIME STEP      1, STRESS PERIOD     18
 UBDSV1 SAVING     FLOW-JA-FACE ON UNIT   1024 AT TIME STEP      1, STRESS PERIOD     18
 UBDSV06 SAVING  SOURCE-SINK MIX IN MODEL SERIES2GWT       PACKAGE SERIES2GWT      CONNECTED TO MODEL SERIES2GWT       PACKAGE SSM              ON UNIT   1024 AT TIME STEP      1, STRESS PERIOD     18
 UBDSV06 SAVING              CNC IN MODEL SERIES2GWT       PACKAGE SERIES2GWT      CONNECTED TO MODEL SERIES2GWT       PACKAGE CNC              ON UNIT   1024 AT TIME STEP      1, STRESS PERIOD     18

 CONCENTRATION WILL BE SAVED ON UNIT 1025 AT END OF TIME STEP    1, STRESS PERIOD   18


  MASS BUDGET FOR ENTIRE MODEL AT END OF TIME STEP    1, STRESS PERIOD  18
  ---------------------------------------------------------------------------------------------------

     CUMULATIVE MASS      M       RATES FOR THIS TIME STEP      M/T          PACKAGE NAME    
     ------------------                 ------------------------                     ----------------

           IN:                                      IN:
           ---                                      ---
     STORAGE-AQUEOUS =       3.1668E-03       STORAGE-AQUEOUS =       2.7145E-05     MST             
               CHD_0 =           0.0000                 CHD_0 =           0.0000     SSM             
                 CNC =         133.2580                   CNC =           2.6287     CNC             

            TOTAL IN =         133.2612              TOTAL IN =           2.6288

          OUT:                                     OUT:
          ----                                     ----
     STORAGE-AQUEOUS =         109.3357       STORAGE-AQUEOUS =           1.3559     MST             
               CHD_0 =          23.8506                 CHD_0 =           1.2708     SSM             
                 CNC =           0.0000                   CNC =           0.0000     CNC             

           TOTAL OUT =         133.1863             TOTAL OUT =           2.6267

            IN - OUT =       7.4885E-02              IN - OUT =       2.1110E-03

 PERCENT DISCREPANCY =           0.06     PERCENT DISCREPANCY =           0.08




         TIME SUMMARY AT END OF TIME STEP    1 IN STRESS PERIOD   18
                    SECONDS     MINUTES      HOURS       DAYS        YEARS
                    -----------------------------------------------------------
   TIME STEP LENGTH  300.00      5.0000     8.33333E-02 3.47222E-03 9.50643E-06
 STRESS PERIOD TIME  300.00      5.0000     8.33333E-02 3.47222E-03 9.50643E-06
         TOTAL TIME  5400.0      90.000      1.5000     6.25000E-02 1.71116E-04


end timestep


start timestep kper="19" kstp="1" mode="normal"


 OUTPUT CONTROL FOR STRESS PERIOD 19 IS REPEATED USING SETTINGS FROM A PREVIOUS STRESS PERIOD.

 REUSING CNCS FROM LAST STRESS PERIOD
 UBDSV1 SAVING  STORAGE-AQUEOUS ON UNIT   1024 AT TIME STEP      1, STRESS PERIOD     19
 UBDSV1 SAVING     FLOW-JA-FACE ON UNIT   1024 AT TIME STEP      1, STRESS PERIOD     19
 UBDSV06 SAVING  SOURCE-SINK MIX IN MODEL SERIES2GWT       PACKAGE SERIES2GWT      CONNECTED TO MODEL SERIES2GWT       PACKAGE SSM              ON UNIT   1024 AT TIME STEP      1, STRESS PERIOD     19
 UBDSV06 SAVING              CNC IN MODEL SERIES2GWT       PACKAGE SERIES2GWT      CONNECTED TO MODEL SERIES2GWT       PACKAGE CNC              ON UNIT   1024 AT TIME STEP      1, STRESS PERIOD     19

 CONCENTRATION WILL BE SAVED ON UNIT 1025 AT END OF TIME STEP    1, STRESS PERIOD   19


  MASS BUDGET FOR ENTIRE MODEL AT END OF TIME STEP    1, STRESS PERIOD  19
  ---------------------------------------------------------------------------------------------------

     CUMULATIVE MASS      M       RATES FOR THIS TIME STEP      M/T          PACKAGE NAME    
     ------------------                 ------------------------                     ----------------

           IN:                                      IN:
           ---                                      ---
     STORAGE-AQUEOUS =       3.2484E-03       STORAGE-AQUEOUS =       1.6318E-05     MST             
               CHD_0 =           0.0000                 CHD_0 =           0.0000     SSM             
                 CNC =         146.4039                   CNC =           2.6292     CNC             

            TOTAL IN =         146.4071              TOTAL IN =           2.6292

          OUT:                                     OUT:
          ----                                     ----
     STORAGE-AQUEOUS =         115.2646       STORAGE-AQUEOUS =           1.1858     MST             
               CHD_0 =          31.0649                 CHD_0 =           1.4429     SSM             
                 CNC =           0.0000                   CNC =           0.0000     CNC             

           TOTAL OUT =         146.3295             TOTAL OUT =           2.6286

            IN - OUT =       7.7617E-02              IN - OUT =       5.4633E-04

 PERCENT DISCREPANCY =           0.05     PERCENT DISCREPANCY =           0.02




         TIME SUMMARY AT END OF TIME STEP    1 IN STRESS PERIOD   19
                    SECONDS     MINUTES      HOURS       DAYS        YEARS
                    -----------------------------------------------------------
   TIME STEP LENGTH  300.00      5.0000     8.33333E-02 3.47222E-03 9.50643E-06
 STRESS PERIOD TIME  300.00      5.0000     8.33333E-02 3.47222E-03 9.50643E-06
         TOTAL TIME  5700.0      95.000      1.5833     6.59722E-02 1.80622E-04


end timestep


start timestep kper="20" kstp="1" mode="normal"


 OUTPUT CONTROL FOR STRESS PERIOD 20 IS REPEATED USING SETTINGS FROM A PREVIOUS STRESS PERIOD.

 REUSING CNCS FROM LAST STRESS PERIOD
 UBDSV1 SAVING  STORAGE-AQUEOUS ON UNIT   1024 AT TIME STEP      1, STRESS PERIOD     20
 UBDSV1 SAVING     FLOW-JA-FACE ON UNIT   1024 AT TIME STEP      1, STRESS PERIOD     20
 UBDSV06 SAVING  SOURCE-SINK MIX IN MODEL SERIES2GWT       PACKAGE SERIES2GWT      CONNECTED TO MODEL SERIES2GWT       PACKAGE SSM              ON UNIT   1024 AT TIME STEP      1, STRESS PERIOD     20
 UBDSV06 SAVING              CNC IN MODEL SERIES2GWT       PACKAGE SERIES2GWT      CONNECTED TO MODEL SERIES2GWT       PACKAGE CNC              ON UNIT   1024 AT TIME STEP      1, STRESS PERIOD     20

 CONCENTRATION WILL BE SAVED ON UNIT 1025 AT END OF TIME STEP    1, STRESS PERIOD   20


  MASS BUDGET FOR ENTIRE MODEL AT END OF TIME STEP    1, STRESS PERIOD  20
  ---------------------------------------------------------------------------------------------------

     CUMULATIVE MASS      M       RATES FOR THIS TIME STEP      M/T          PACKAGE NAME    
     ------------------                 ------------------------                     ----------------

           IN:                                      IN:
           ---                                      ---
     STORAGE-AQUEOUS =       3.6957E-03       STORAGE-AQUEOUS =       8.9473E-05     MST             
               CHD_0 =           0.0000                 CHD_0 =           0.0000     SSM             
                 CNC =         159.5531                   CNC =           2.6298     CNC             

            TOTAL IN =         159.5568              TOTAL IN =           2.6299

          OUT:                                     OUT:
          ----                                     ----
     STORAGE-AQUEOUS =         120.4569       STORAGE-AQUEOUS =           1.0384     MST             
               CHD_0 =          39.0151                 CHD_0 =           1.5900     SSM             
                 CNC =           0.0000                   CNC =           0.0000     CNC             

           TOTAL OUT =         159.4719             TOTAL OUT =           2.6285

            IN - OUT =       8.4876E-02              IN - OUT =       1.4518E-03

 PERCENT DISCREPANCY =           0.05     PERCENT DISCREPANCY =           0.06




         TIME SUMMARY AT END OF TIME STEP    1 IN STRESS PERIOD   20
                    SECONDS     MINUTES      HOURS       DAYS        YEARS
                    -----------------------------------------------------------
   TIME STEP LENGTH  300.00      5.0000     8.33333E-02 3.47222E-03 9.50643E-06
 STRESS PERIOD TIME  300.00      5.0000     8.33333E-02 3.47222E-03 9.50643E-06
         TOTAL TIME  6000.0      100.00      1.6667     6.94444E-02 1.90129E-04


end timestep


start timestep kper="21" kstp="1" mode="normal"


 OUTPUT CONTROL FOR STRESS PERIOD 21 IS REPEATED USING SETTINGS FROM A PREVIOUS STRESS PERIOD.

 REUSING CNCS FROM LAST STRESS PERIOD
 UBDSV1 SAVING  STORAGE-AQUEOUS ON UNIT   1024 AT TIME STEP      1, STRESS PERIOD     21
 UBDSV1 SAVING     FLOW-JA-FACE ON UNIT   1024 AT TIME STEP      1, STRESS PERIOD     21
 UBDSV06 SAVING  SOURCE-SINK MIX IN MODEL SERIES2GWT       PACKAGE SERIES2GWT      CONNECTED TO MODEL SERIES2GWT       PACKAGE SSM              ON UNIT   1024 AT TIME STEP      1, STRESS PERIOD     21
 UBDSV06 SAVING              CNC IN MODEL SERIES2GWT       PACKAGE SERIES2GWT      CONNECTED TO MODEL SERIES2GWT       PACKAGE CNC              ON UNIT   1024 AT TIME STEP      1, STRESS PERIOD     21

 CONCENTRATION WILL BE SAVED ON UNIT 1025 AT END OF TIME STEP    1, STRESS PERIOD   21


  MASS BUDGET FOR ENTIRE MODEL AT END OF TIME STEP    1, STRESS PERIOD  21
  ---------------------------------------------------------------------------------------------------

     CUMULATIVE MASS      M       RATES FOR THIS TIME STEP      M/T          PACKAGE NAME    
     ------------------                 ------------------------                     ----------------

           IN:                                      IN:
           ---                                      ---
     STORAGE-AQUEOUS =       4.3379E-03       STORAGE-AQUEOUS =       1.2843E-04     MST             
               CHD_0 =           0.0000                 CHD_0 =           0.0000     SSM             
                 CNC =         172.7050                   CNC =           2.6304     CNC             

            TOTAL IN =         172.7093              TOTAL IN =           2.6305

          OUT:                                     OUT:
          ----                                     ----
     STORAGE-AQUEOUS =         125.0303       STORAGE-AQUEOUS =           0.9147     MST             
               CHD_0 =          47.5871                 CHD_0 =           1.7144     SSM             
                 CNC =           0.0000                   CNC =           0.0000     CNC             

           TOTAL OUT =         172.6174             TOTAL OUT =           2.6291

            IN - OUT =       9.1966E-02              IN - OUT =       1.4180E-03

 PERCENT DISCREPANCY =           0.05     PERCENT DISCREPANCY =           0.05




         TIME SUMMARY AT END OF TIME STEP    1 IN STRESS PERIOD   21
                    SECONDS     MINUTES      HOURS       DAYS        YEARS
                    -----------------------------------------------------------
   TIME STEP LENGTH  300.00      5.0000     8.33333E-02 3.47222E-03 9.50643E-06
 STRESS PERIOD TIME  300.00      5.0000     8.33333E-02 3.47222E-03 9.50643E-06
         TOTAL TIME  6300.0      105.00      1.7500     7.29167E-02 1.99635E-04


end timestep


start timestep kper="22" kstp="1" mode="normal"


 OUTPUT CONTROL FOR STRESS PERIOD 22 IS REPEATED USING SETTINGS FROM A PREVIOUS STRESS PERIOD.

 REUSING CNCS FROM LAST STRESS PERIOD
 UBDSV1 SAVING  STORAGE-AQUEOUS ON UNIT   1024 AT TIME STEP      1, STRESS PERIOD     22
 UBDSV1 SAVING     FLOW-JA-FACE ON UNIT   1024 AT TIME STEP      1, STRESS PERIOD     22
 UBDSV06 SAVING  SOURCE-SINK MIX IN MODEL SERIES2GWT       PACKAGE SERIES2GWT      CONNECTED TO MODEL SERIES2GWT       PACKAGE SSM              ON UNIT   1024 AT TIME STEP      1, STRESS PERIOD     22
 UBDSV06 SAVING              CNC IN MODEL SERIES2GWT       PACKAGE SERIES2GWT      CONNECTED TO MODEL SERIES2GWT       PACKAGE CNC              ON UNIT   1024 AT TIME STEP      1, STRESS PERIOD     22

 CONCENTRATION WILL BE SAVED ON UNIT 1025 AT END OF TIME STEP    1, STRESS PERIOD   22


  MASS BUDGET FOR ENTIRE MODEL AT END OF TIME STEP    1, STRESS PERIOD  22
  ---------------------------------------------------------------------------------------------------

     CUMULATIVE MASS      M       RATES FOR THIS TIME STEP      M/T          PACKAGE NAME    
     ------------------                 ------------------------                     ----------------

           IN:                                      IN:
           ---                                      ---
     STORAGE-AQUEOUS =       5.2242E-03       STORAGE-AQUEOUS =       1.7727E-04     MST             
               CHD_0 =           0.0000                 CHD_0 =           0.0000     SSM             
                 CNC =         185.8594                   CNC =           2.6309     CNC             

            TOTAL IN =         185.8647              TOTAL IN =           2.6311

          OUT:                                     OUT:
          ----                                     ----
     STORAGE-AQUEOUS =         129.0870       STORAGE-AQUEOUS =           0.8114     MST             
               CHD_0 =          56.6810                 CHD_0 =           1.8188     SSM             
                 CNC =           0.0000                   CNC =           0.0000     CNC             

           TOTAL OUT =         185.7681             TOTAL OUT =           2.6301

            IN - OUT =       9.6572E-02              IN - OUT =       9.2115E-04

 PERCENT DISCREPANCY =           0.05     PERCENT DISCREPANCY =           0.04




         TIME SUMMARY AT END OF TIME STEP    1 IN STRESS PERIOD   22
                    SECONDS     MINUTES      HOURS       DAYS        YEARS
                    -----------------------------------------------------------
   TIME STEP LENGTH  300.00      5.0000     8.33333E-02 3.47222E-03 9.50643E-06
 STRESS PERIOD TIME  300.00      5.0000     8.33333E-02 3.47222E-03 9.50643E-06
         TOTAL TIME  6600.0      110.00      1.8333     7.63889E-02 2.09141E-04


end timestep


start timestep kper="23" kstp="1" mode="normal"


 OUTPUT CONTROL FOR STRESS PERIOD 23 IS REPEATED USING SETTINGS FROM A PREVIOUS STRESS PERIOD.

 REUSING CNCS FROM LAST STRESS PERIOD
 UBDSV1 SAVING  STORAGE-AQUEOUS ON UNIT   1024 AT TIME STEP      1, STRESS PERIOD     23
 UBDSV1 SAVING     FLOW-JA-FACE ON UNIT   1024 AT TIME STEP      1, STRESS PERIOD     23
 UBDSV06 SAVING  SOURCE-SINK MIX IN MODEL SERIES2GWT       PACKAGE SERIES2GWT      CONNECTED TO MODEL SERIES2GWT       PACKAGE SSM              ON UNIT   1024 AT TIME STEP      1, STRESS PERIOD     23
 UBDSV06 SAVING              CNC IN MODEL SERIES2GWT       PACKAGE SERIES2GWT      CONNECTED TO MODEL SERIES2GWT       PACKAGE CNC              ON UNIT   1024 AT TIME STEP      1, STRESS PERIOD     23

 CONCENTRATION WILL BE SAVED ON UNIT 1025 AT END OF TIME STEP    1, STRESS PERIOD   23


  MASS BUDGET FOR ENTIRE MODEL AT END OF TIME STEP    1, STRESS PERIOD  23
  ---------------------------------------------------------------------------------------------------

     CUMULATIVE MASS      M       RATES FOR THIS TIME STEP      M/T          PACKAGE NAME    
     ------------------                 ------------------------                     ----------------

           IN:                                      IN:
           ---                                      ---
     STORAGE-AQUEOUS =       6.5165E-03       STORAGE-AQUEOUS =       2.5845E-04     MST             
               CHD_0 =           0.0000                 CHD_0 =           0.0000     SSM             
                 CNC =         199.0162                   CNC =           2.6314     CNC             

            TOTAL IN =         199.0228              TOTAL IN =           2.6316

          OUT:                                     OUT:
          ----                                     ----
     STORAGE-AQUEOUS =         132.7047       STORAGE-AQUEOUS =           0.7235     MST             
               CHD_0 =          66.2169                 CHD_0 =           1.9072     SSM             
                 CNC =           0.0000                   CNC =           0.0000     CNC             

           TOTAL OUT =         198.9216             TOTAL OUT =           2.6307

            IN - OUT =           0.1011              IN - OUT =       9.1116E-04

 PERCENT DISCREPANCY =           0.05     PERCENT DISCREPANCY =           0.03




         TIME SUMMARY AT END OF TIME STEP    1 IN STRESS PERIOD   23
                    SECONDS     MINUTES      HOURS       DAYS        YEARS
                    -----------------------------------------------------------
   TIME STEP LENGTH  300.00      5.0000     8.33333E-02 3.47222E-03 9.50643E-06
 STRESS PERIOD TIME  300.00      5.0000     8.33333E-02 3.47222E-03 9.50643E-06
         TOTAL TIME  6900.0      115.00      1.9167     7.98611E-02 2.18648E-04


end timestep


start timestep kper="24" kstp="1" mode="normal"


 OUTPUT CONTROL FOR STRESS PERIOD 24 IS REPEATED USING SETTINGS FROM A PREVIOUS STRESS PERIOD.

 REUSING CNCS FROM LAST STRESS PERIOD
 UBDSV1 SAVING  STORAGE-AQUEOUS ON UNIT   1024 AT TIME STEP      1, STRESS PERIOD     24
 UBDSV1 SAVING     FLOW-JA-FACE ON UNIT   1024 AT TIME STEP      1, STRESS PERIOD     24
 UBDSV06 SAVING  SOURCE-SINK MIX IN MODEL SERIES2GWT       PACKAGE SERIES2GWT      CONNECTED TO MODEL SERIES2GWT       PACKAGE SSM              ON UNIT   1024 AT TIME STEP      1, STRESS PERIOD     24
 UBDSV06 SAVING              CNC IN MODEL SERIES2GWT       PACKAGE SERIES2GWT      CONNECTED TO MODEL SERIES2GWT       PACKAGE CNC              ON UNIT   1024 AT TIME STEP      1, STRESS PERIOD     24

 CONCENTRATION WILL BE SAVED ON UNIT 1025 AT END OF TIME STEP    1, STRESS PERIOD   24


  MASS BUDGET FOR ENTIRE MODEL AT END OF TIME STEP    1, STRESS PERIOD  24
  ---------------------------------------------------------------------------------------------------

     CUMULATIVE MASS      M       RATES FOR THIS TIME STEP      M/T          PACKAGE NAME    
     ------------------                 ------------------------                     ----------------

           IN:                                      IN:
           ---                                      ---
     STORAGE-AQUEOUS =       8.0888E-03       STORAGE-AQUEOUS =       3.1447E-04     MST             
               CHD_0 =           0.0000                 CHD_0 =           0.0000     SSM             
                 CNC =         212.1754                   CNC =           2.6318     CNC             

            TOTAL IN =         212.1835              TOTAL IN =           2.6322

          OUT:                                     OUT:
          ----                                     ----
     STORAGE-AQUEOUS =         135.9520       STORAGE-AQUEOUS =           0.6495     MST             
               CHD_0 =          76.1253                 CHD_0 =           1.9817     SSM             
                 CNC =           0.0000                   CNC =           0.0000     CNC             

           TOTAL OUT =         212.0774             TOTAL OUT =           2.6311

            IN - OUT =           0.1062              IN - OUT =       1.0065E-03

 PERCENT DISCREPANCY =           0.05     PERCENT DISCREPANCY =           0.04




         TIME SUMMARY AT END OF TIME STEP    1 IN STRESS PERIOD   24
                    SECONDS     MINUTES      HOURS       DAYS        YEARS
                    -----------------------------------------------------------
   TIME STEP LENGTH  300.00      5.0000     8.33333E-02 3.47222E-03 9.50643E-06
 STRESS PERIOD TIME  300.00      5.0000     8.33333E-02 3.47222E-03 9.50643E-06
         TOTAL TIME  7200.0      120.00      2.0000     8.33333E-02 2.28154E-04


end timestep


start timestep kper="25" kstp="1" mode="normal"


 OUTPUT CONTROL FOR STRESS PERIOD 25 IS REPEATED USING SETTINGS FROM A PREVIOUS STRESS PERIOD.

 REUSING CNCS FROM LAST STRESS PERIOD
 UBDSV1 SAVING  STORAGE-AQUEOUS ON UNIT   1024 AT TIME STEP      1, STRESS PERIOD     25
 UBDSV1 SAVING     FLOW-JA-FACE ON UNIT   1024 AT TIME STEP      1, STRESS PERIOD     25
 UBDSV06 SAVING  SOURCE-SINK MIX IN MODEL SERIES2GWT       PACKAGE SERIES2GWT      CONNECTED TO MODEL SERIES2GWT       PACKAGE SSM              ON UNIT   1024 AT TIME STEP      1, STRESS PERIOD     25
 UBDSV06 SAVING              CNC IN MODEL SERIES2GWT       PACKAGE SERIES2GWT      CONNECTED TO MODEL SERIES2GWT       PACKAGE CNC              ON UNIT   1024 AT TIME STEP      1, STRESS PERIOD     25

 CONCENTRATION WILL BE SAVED ON UNIT 1025 AT END OF TIME STEP    1, STRESS PERIOD   25


  MASS BUDGET FOR ENTIRE MODEL AT END OF TIME STEP    1, STRESS PERIOD  25
  ---------------------------------------------------------------------------------------------------

     CUMULATIVE MASS      M       RATES FOR THIS TIME STEP      M/T          PACKAGE NAME    
     ------------------                 ------------------------                     ----------------

           IN:                                      IN:
           ---                                      ---
     STORAGE-AQUEOUS =       1.0502E-02       STORAGE-AQUEOUS =       4.8262E-04     MST             
               CHD_0 =           0.0000                 CHD_0 =           0.0000     SSM             
                 CNC =         225.3370                   CNC =           2.6323     CNC             

            TOTAL IN =         225.3475              TOTAL IN =           2.6328

          OUT:                                     OUT:
          ----                                     ----
     STORAGE-AQUEOUS =         138.8822       STORAGE-AQUEOUS =           0.5860     MST             
               CHD_0 =          86.3559                 CHD_0 =           2.0461     SSM             
                 CNC =           0.0000                   CNC =           0.0000     CNC             

           TOTAL OUT =         225.2381             TOTAL OUT =           2.6321

            IN - OUT =           0.1094              IN - OUT =       6.4254E-04

 PERCENT DISCREPANCY =           0.05     PERCENT DISCREPANCY =           0.02




         TIME SUMMARY AT END OF TIME STEP    1 IN STRESS PERIOD   25
                    SECONDS     MINUTES      HOURS       DAYS        YEARS
                    -----------------------------------------------------------
   TIME STEP LENGTH  300.00      5.0000     8.33333E-02 3.47222E-03 9.50643E-06
 STRESS PERIOD TIME  300.00      5.0000     8.33333E-02 3.47222E-03 9.50643E-06
         TOTAL TIME  7500.0      125.00      2.0833     8.68056E-02 2.37661E-04


end timestep


start timestep kper="26" kstp="1" mode="normal"


 OUTPUT CONTROL FOR STRESS PERIOD 26 IS REPEATED USING SETTINGS FROM A PREVIOUS STRESS PERIOD.

 REUSING CNCS FROM LAST STRESS PERIOD
 UBDSV1 SAVING  STORAGE-AQUEOUS ON UNIT   1024 AT TIME STEP      1, STRESS PERIOD     26
 UBDSV1 SAVING     FLOW-JA-FACE ON UNIT   1024 AT TIME STEP      1, STRESS PERIOD     26
 UBDSV06 SAVING  SOURCE-SINK MIX IN MODEL SERIES2GWT       PACKAGE SERIES2GWT      CONNECTED TO MODEL SERIES2GWT       PACKAGE SSM              ON UNIT   1024 AT TIME STEP      1, STRESS PERIOD     26
 UBDSV06 SAVING              CNC IN MODEL SERIES2GWT       PACKAGE SERIES2GWT      CONNECTED TO MODEL SERIES2GWT       PACKAGE CNC              ON UNIT   1024 AT TIME STEP      1, STRESS PERIOD     26

 CONCENTRATION WILL BE SAVED ON UNIT 1025 AT END OF TIME STEP    1, STRESS PERIOD   26


  MASS BUDGET FOR ENTIRE MODEL AT END OF TIME STEP    1, STRESS PERIOD  26
  ---------------------------------------------------------------------------------------------------

     CUMULATIVE MASS      M       RATES FOR THIS TIME STEP      M/T          PACKAGE NAME    
     ------------------                 ------------------------                     ----------------

           IN:                                      IN:
           ---                                      ---
     STORAGE-AQUEOUS =       1.3215E-02       STORAGE-AQUEOUS =       5.4265E-04     MST             
               CHD_0 =           0.0000                 CHD_0 =           0.0000     SSM             
                 CNC =         238.5005                   CNC =           2.6327     CNC             

            TOTAL IN =         238.5137              TOTAL IN =           2.6333

          OUT:                                     OUT:
          ----                                     ----
     STORAGE-AQUEOUS =         141.5369       STORAGE-AQUEOUS =           0.5309     MST             
               CHD_0 =          96.8628                 CHD_0 =           2.1014     SSM             
                 CNC =           0.0000                   CNC =           0.0000     CNC             

           TOTAL OUT =         238.3997             TOTAL OUT =           2.6323

            IN - OUT =           0.1140              IN - OUT =       9.3499E-04

 PERCENT DISCREPANCY =           0.05     PERCENT DISCREPANCY =           0.04




         TIME SUMMARY AT END OF TIME STEP    1 IN STRESS PERIOD   26
                    SECONDS     MINUTES      HOURS       DAYS        YEARS
                    -----------------------------------------------------------
   TIME STEP LENGTH  300.00      5.0000     8.33333E-02 3.47222E-03 9.50643E-06
 STRESS PERIOD TIME  300.00      5.0000     8.33333E-02 3.47222E-03 9.50643E-06
         TOTAL TIME  7800.0      130.00      2.1667     9.02778E-02 2.47167E-04


end timestep


start timestep kper="27" kstp="1" mode="normal"


 OUTPUT CONTROL FOR STRESS PERIOD 27 IS REPEATED USING SETTINGS FROM A PREVIOUS STRESS PERIOD.

 REUSING CNCS FROM LAST STRESS PERIOD
 UBDSV1 SAVING  STORAGE-AQUEOUS ON UNIT   1024 AT TIME STEP      1, STRESS PERIOD     27
 UBDSV1 SAVING     FLOW-JA-FACE ON UNIT   1024 AT TIME STEP      1, STRESS PERIOD     27
 UBDSV06 SAVING  SOURCE-SINK MIX IN MODEL SERIES2GWT       PACKAGE SERIES2GWT      CONNECTED TO MODEL SERIES2GWT       PACKAGE SSM              ON UNIT   1024 AT TIME STEP      1, STRESS PERIOD     27
 UBDSV06 SAVING              CNC IN MODEL SERIES2GWT       PACKAGE SERIES2GWT      CONNECTED TO MODEL SERIES2GWT       PACKAGE CNC              ON UNIT   1024 AT TIME STEP      1, STRESS PERIOD     27

 CONCENTRATION WILL BE SAVED ON UNIT 1025 AT END OF TIME STEP    1, STRESS PERIOD   27


  MASS BUDGET FOR ENTIRE MODEL AT END OF TIME STEP    1, STRESS PERIOD  27
  ---------------------------------------------------------------------------------------------------

     CUMULATIVE MASS      M       RATES FOR THIS TIME STEP      M/T          PACKAGE NAME    
     ------------------                 ------------------------                     ----------------

           IN:                                      IN:
           ---                                      ---
     STORAGE-AQUEOUS =       1.6675E-02       STORAGE-AQUEOUS =       6.9199E-04     MST             
               CHD_0 =           0.0000                 CHD_0 =           0.0000     SSM             
                 CNC =         251.6660                   CNC =           2.6331     CNC             

            TOTAL IN =         251.6827              TOTAL IN =           2.6338

          OUT:                                     OUT:
          ----                                     ----
     STORAGE-AQUEOUS =         143.9505       STORAGE-AQUEOUS =           0.4827     MST             
               CHD_0 =         107.6150                 CHD_0 =           2.1504     SSM             
                 CNC =           0.0000                   CNC =           0.0000     CNC             

           TOTAL OUT =         251.5654             TOTAL OUT =           2.6332

            IN - OUT =           0.1173              IN - OUT =       6.4366E-04

 PERCENT DISCREPANCY =           0.05     PERCENT DISCREPANCY =           0.02




         TIME SUMMARY AT END OF TIME STEP    1 IN STRESS PERIOD   27
                    SECONDS     MINUTES      HOURS       DAYS        YEARS
                    -----------------------------------------------------------
   TIME STEP LENGTH  300.00      5.0000     8.33333E-02 3.47222E-03 9.50643E-06
 STRESS PERIOD TIME  300.00      5.0000     8.33333E-02 3.47222E-03 9.50643E-06
         TOTAL TIME  8100.0      135.00      2.2500     9.37500E-02 2.56674E-04


end timestep


start timestep kper="28" kstp="1" mode="normal"


 OUTPUT CONTROL FOR STRESS PERIOD 28 IS REPEATED USING SETTINGS FROM A PREVIOUS STRESS PERIOD.

 REUSING CNCS FROM LAST STRESS PERIOD
 UBDSV1 SAVING  STORAGE-AQUEOUS ON UNIT   1024 AT TIME STEP      1, STRESS PERIOD     28
 UBDSV1 SAVING     FLOW-JA-FACE ON UNIT   1024 AT TIME STEP      1, STRESS PERIOD     28
 UBDSV06 SAVING  SOURCE-SINK MIX IN MODEL SERIES2GWT       PACKAGE SERIES2GWT      CONNECTED TO MODEL SERIES2GWT       PACKAGE SSM              ON UNIT   1024 AT TIME STEP      1, STRESS PERIOD     28
 UBDSV06 SAVING              CNC IN MODEL SERIES2GWT       PACKAGE SERIES2GWT      CONNECTED TO MODEL SERIES2GWT       PACKAGE CNC              ON UNIT   1024 AT TIME STEP      1, STRESS PERIOD     28

 CONCENTRATION WILL BE SAVED ON UNIT 1025 AT END OF TIME STEP    1, STRESS PERIOD   28


  MASS BUDGET FOR ENTIRE MODEL AT END OF TIME STEP    1, STRESS PERIOD  28
  ---------------------------------------------------------------------------------------------------

     CUMULATIVE MASS      M       RATES FOR THIS TIME STEP      M/T          PACKAGE NAME    
     ------------------                 ------------------------                     ----------------

           IN:                                      IN:
           ---                                      ---
     STORAGE-AQUEOUS =       2.0504E-02       STORAGE-AQUEOUS =       7.6571E-04     MST             
               CHD_0 =           0.0000                 CHD_0 =           0.0000     SSM             
                 CNC =         264.8332                   CNC =           2.6334     CNC             

            TOTAL IN =         264.8537              TOTAL IN =           2.6342

          OUT:                                     OUT:
          ----                                     ----
     STORAGE-AQUEOUS =         146.1481       STORAGE-AQUEOUS =           0.4395     MST             
               CHD_0 =         118.5861                 CHD_0 =           2.1942     SSM             
                 CNC =           0.0000                   CNC =           0.0000     CNC             

           TOTAL OUT =         264.7342             TOTAL OUT =           2.6338

            IN - OUT =           0.1195              IN - OUT =       4.3898E-04

 PERCENT DISCREPANCY =           0.05     PERCENT DISCREPANCY =           0.02




         TIME SUMMARY AT END OF TIME STEP    1 IN STRESS PERIOD   28
                    SECONDS     MINUTES      HOURS       DAYS        YEARS
                    -----------------------------------------------------------
   TIME STEP LENGTH  300.00      5.0000     8.33333E-02 3.47222E-03 9.50643E-06
 STRESS PERIOD TIME  300.00      5.0000     8.33333E-02 3.47222E-03 9.50643E-06
         TOTAL TIME  8400.0      140.00      2.3333     9.72222E-02 2.66180E-04


end timestep


start timestep kper="29" kstp="1" mode="normal"


 OUTPUT CONTROL FOR STRESS PERIOD 29 IS REPEATED USING SETTINGS FROM A PREVIOUS STRESS PERIOD.

 REUSING CNCS FROM LAST STRESS PERIOD
 UBDSV1 SAVING  STORAGE-AQUEOUS ON UNIT   1024 AT TIME STEP      1, STRESS PERIOD     29
 UBDSV1 SAVING     FLOW-JA-FACE ON UNIT   1024 AT TIME STEP      1, STRESS PERIOD     29
 UBDSV06 SAVING  SOURCE-SINK MIX IN MODEL SERIES2GWT       PACKAGE SERIES2GWT      CONNECTED TO MODEL SERIES2GWT       PACKAGE SSM              ON UNIT   1024 AT TIME STEP      1, STRESS PERIOD     29
 UBDSV06 SAVING              CNC IN MODEL SERIES2GWT       PACKAGE SERIES2GWT      CONNECTED TO MODEL SERIES2GWT       PACKAGE CNC              ON UNIT   1024 AT TIME STEP      1, STRESS PERIOD     29

 CONCENTRATION WILL BE SAVED ON UNIT 1025 AT END OF TIME STEP    1, STRESS PERIOD   29


  MASS BUDGET FOR ENTIRE MODEL AT END OF TIME STEP    1, STRESS PERIOD  29
  ---------------------------------------------------------------------------------------------------

     CUMULATIVE MASS      M       RATES FOR THIS TIME STEP      M/T          PACKAGE NAME    
     ------------------                 ------------------------                     ----------------

           IN:                                      IN:
           ---                                      ---
     STORAGE-AQUEOUS =       2.4550E-02       STORAGE-AQUEOUS =       8.0934E-04     MST             
               CHD_0 =           0.0000                 CHD_0 =           0.0000     SSM             
                 CNC =         278.0019                   CNC =           2.6337     CNC             

            TOTAL IN =         278.0264              TOTAL IN =           2.6346

          OUT:                                     OUT:
          ----                                     ----
     STORAGE-AQUEOUS =         148.1505       STORAGE-AQUEOUS =           0.4005     MST             
               CHD_0 =         129.7532                 CHD_0 =           2.2334     SSM             
                 CNC =           0.0000                   CNC =           0.0000     CNC             

           TOTAL OUT =         277.9037             TOTAL OUT =           2.6339

            IN - OUT =           0.1227              IN - OUT =       6.5566E-04

 PERCENT DISCREPANCY =           0.04     PERCENT DISCREPANCY =           0.02




         TIME SUMMARY AT END OF TIME STEP    1 IN STRESS PERIOD   29
                    SECONDS     MINUTES      HOURS       DAYS        YEARS
                    -----------------------------------------------------------
   TIME STEP LENGTH  300.00      5.0000     8.33333E-02 3.47222E-03 9.50643E-06
 STRESS PERIOD TIME  300.00      5.0000     8.33333E-02 3.47222E-03 9.50643E-06
         TOTAL TIME  8700.0      145.00      2.4167     0.10069     2.75686E-04


end timestep


start timestep kper="30" kstp="1" mode="normal"


 OUTPUT CONTROL FOR STRESS PERIOD 30 IS REPEATED USING SETTINGS FROM A PREVIOUS STRESS PERIOD.

 REUSING CNCS FROM LAST STRESS PERIOD
 UBDSV1 SAVING  STORAGE-AQUEOUS ON UNIT   1024 AT TIME STEP      1, STRESS PERIOD     30
 UBDSV1 SAVING     FLOW-JA-FACE ON UNIT   1024 AT TIME STEP      1, STRESS PERIOD     30
 UBDSV06 SAVING  SOURCE-SINK MIX IN MODEL SERIES2GWT       PACKAGE SERIES2GWT      CONNECTED TO MODEL SERIES2GWT       PACKAGE SSM              ON UNIT   1024 AT TIME STEP      1, STRESS PERIOD     30
 UBDSV06 SAVING              CNC IN MODEL SERIES2GWT       PACKAGE SERIES2GWT      CONNECTED TO MODEL SERIES2GWT       PACKAGE CNC              ON UNIT   1024 AT TIME STEP      1, STRESS PERIOD     30

 CONCENTRATION WILL BE SAVED ON UNIT 1025 AT END OF TIME STEP    1, STRESS PERIOD   30


  MASS BUDGET FOR ENTIRE MODEL AT END OF TIME STEP    1, STRESS PERIOD  30
  ---------------------------------------------------------------------------------------------------

     CUMULATIVE MASS      M       RATES FOR THIS TIME STEP      M/T          PACKAGE NAME    
     ------------------                 ------------------------                     ----------------

           IN:                                      IN:
           ---                                      ---
     STORAGE-AQUEOUS =       2.9263E-02       STORAGE-AQUEOUS =       9.4246E-04     MST             
               CHD_0 =           0.0000                 CHD_0 =           0.0000     SSM             
                 CNC =         291.1722                   CNC =           2.6341     CNC             

            TOTAL IN =         291.2014              TOTAL IN =           2.6350

          OUT:                                     OUT:
          ----                                     ----
     STORAGE-AQUEOUS =         149.9769       STORAGE-AQUEOUS =           0.3653     MST             
               CHD_0 =         141.0997                 CHD_0 =           2.2693     SSM             
                 CNC =           0.0000                   CNC =           0.0000     CNC             

           TOTAL OUT =         291.0766             TOTAL OUT =           2.6346

            IN - OUT =           0.1248              IN - OUT =       4.1805E-04

 PERCENT DISCREPANCY =           0.04     PERCENT DISCREPANCY =           0.02




         TIME SUMMARY AT END OF TIME STEP    1 IN STRESS PERIOD   30
                    SECONDS     MINUTES      HOURS       DAYS        YEARS
                    -----------------------------------------------------------
   TIME STEP LENGTH  300.00      5.0000     8.33333E-02 3.47222E-03 9.50643E-06
 STRESS PERIOD TIME  300.00      5.0000     8.33333E-02 3.47222E-03 9.50643E-06
         TOTAL TIME  9000.0      150.00      2.5000     0.10417     2.85193E-04


end timestep


start timestep kper="31" kstp="1" mode="normal"


 OUTPUT CONTROL FOR STRESS PERIOD 31 IS REPEATED USING SETTINGS FROM A PREVIOUS STRESS PERIOD.

 REUSING CNCS FROM LAST STRESS PERIOD
 UBDSV1 SAVING  STORAGE-AQUEOUS ON UNIT   1024 AT TIME STEP      1, STRESS PERIOD     31
 UBDSV1 SAVING     FLOW-JA-FACE ON UNIT   1024 AT TIME STEP      1, STRESS PERIOD     31
 UBDSV06 SAVING  SOURCE-SINK MIX IN MODEL SERIES2GWT       PACKAGE SERIES2GWT      CONNECTED TO MODEL SERIES2GWT       PACKAGE SSM              ON UNIT   1024 AT TIME STEP      1, STRESS PERIOD     31
 UBDSV06 SAVING              CNC IN MODEL SERIES2GWT       PACKAGE SERIES2GWT      CONNECTED TO MODEL SERIES2GWT       PACKAGE CNC              ON UNIT   1024 AT TIME STEP      1, STRESS PERIOD     31

 CONCENTRATION WILL BE SAVED ON UNIT 1025 AT END OF TIME STEP    1, STRESS PERIOD   31


  MASS BUDGET FOR ENTIRE MODEL AT END OF TIME STEP    1, STRESS PERIOD  31
  ---------------------------------------------------------------------------------------------------

     CUMULATIVE MASS      M       RATES FOR THIS TIME STEP      M/T          PACKAGE NAME    
     ------------------                 ------------------------                     ----------------

           IN:                                      IN:
           ---                                      ---
     STORAGE-AQUEOUS =       3.4096E-02       STORAGE-AQUEOUS =       9.6673E-04     MST             
               CHD_0 =           0.0000                 CHD_0 =           0.0000     SSM             
                 CNC =         304.3438                   CNC =           2.6343     CNC             

            TOTAL IN =         304.3779              TOTAL IN =           2.6353

          OUT:                                     OUT:
          ----                                     ----
     STORAGE-AQUEOUS =         151.6398       STORAGE-AQUEOUS =           0.3326     MST             
               CHD_0 =         152.6105                 CHD_0 =           2.3022     SSM             
                 CNC =           0.0000                   CNC =           0.0000     CNC             

           TOTAL OUT =         304.2503             TOTAL OUT =           2.6347

            IN - OUT =           0.1276              IN - OUT =       5.5163E-04

 PERCENT DISCREPANCY =           0.04     PERCENT DISCREPANCY =           0.02




         TIME SUMMARY AT END OF TIME STEP    1 IN STRESS PERIOD   31
                    SECONDS     MINUTES      HOURS       DAYS        YEARS
                    -----------------------------------------------------------
   TIME STEP LENGTH  300.00      5.0000     8.33333E-02 3.47222E-03 9.50643E-06
 STRESS PERIOD TIME  300.00      5.0000     8.33333E-02 3.47222E-03 9.50643E-06
         TOTAL TIME  9300.0      155.00      2.5833     0.10764     2.94699E-04


end timestep


start timestep kper="32" kstp="1" mode="normal"


 OUTPUT CONTROL FOR STRESS PERIOD 32 IS REPEATED USING SETTINGS FROM A PREVIOUS STRESS PERIOD.

 REUSING CNCS FROM LAST STRESS PERIOD
 UBDSV1 SAVING  STORAGE-AQUEOUS ON UNIT   1024 AT TIME STEP      1, STRESS PERIOD     32
 UBDSV1 SAVING     FLOW-JA-FACE ON UNIT   1024 AT TIME STEP      1, STRESS PERIOD     32
 UBDSV06 SAVING  SOURCE-SINK MIX IN MODEL SERIES2GWT       PACKAGE SERIES2GWT      CONNECTED TO MODEL SERIES2GWT       PACKAGE SSM              ON UNIT   1024 AT TIME STEP      1, STRESS PERIOD     32
 UBDSV06 SAVING              CNC IN MODEL SERIES2GWT       PACKAGE SERIES2GWT      CONNECTED TO MODEL SERIES2GWT       PACKAGE CNC              ON UNIT   1024 AT TIME STEP      1, STRESS PERIOD     32

 CONCENTRATION WILL BE SAVED ON UNIT 1025 AT END OF TIME STEP    1, STRESS PERIOD   32


  MASS BUDGET FOR ENTIRE MODEL AT END OF TIME STEP    1, STRESS PERIOD  32
  ---------------------------------------------------------------------------------------------------

     CUMULATIVE MASS      M       RATES FOR THIS TIME STEP      M/T          PACKAGE NAME    
     ------------------                 ------------------------                     ----------------

           IN:                                      IN:
           ---                                      ---
     STORAGE-AQUEOUS =       3.9216E-02       STORAGE-AQUEOUS =       1.0239E-03     MST             
               CHD_0 =           0.0000                 CHD_0 =           0.0000     SSM             
                 CNC =         317.5167                   CNC =           2.6346     CNC             

            TOTAL IN =         317.5559              TOTAL IN =           2.6356

          OUT:                                     OUT:
          ----                                     ----
     STORAGE-AQUEOUS =         153.1524       STORAGE-AQUEOUS =           0.3025     MST             
               CHD_0 =         164.2740                 CHD_0 =           2.3327     SSM             
                 CNC =           0.0000                   CNC =           0.0000     CNC             

           TOTAL OUT =         317.4264             TOTAL OUT =           2.6352

            IN - OUT =           0.1295              IN - OUT =       3.8258E-04

 PERCENT DISCREPANCY =           0.04     PERCENT DISCREPANCY =           0.01




         TIME SUMMARY AT END OF TIME STEP    1 IN STRESS PERIOD   32
                    SECONDS     MINUTES      HOURS       DAYS        YEARS
                    -----------------------------------------------------------
   TIME STEP LENGTH  300.00      5.0000     8.33333E-02 3.47222E-03 9.50643E-06
 STRESS PERIOD TIME  300.00      5.0000     8.33333E-02 3.47222E-03 9.50643E-06
         TOTAL TIME  9600.0      160.00      2.6667     0.11111     3.04206E-04


end timestep


start timestep kper="33" kstp="1" mode="normal"


 OUTPUT CONTROL FOR STRESS PERIOD 33 IS REPEATED USING SETTINGS FROM A PREVIOUS STRESS PERIOD.

 REUSING CNCS FROM LAST STRESS PERIOD
 UBDSV1 SAVING  STORAGE-AQUEOUS ON UNIT   1024 AT TIME STEP      1, STRESS PERIOD     33
 UBDSV1 SAVING     FLOW-JA-FACE ON UNIT   1024 AT TIME STEP      1, STRESS PERIOD     33
 UBDSV06 SAVING  SOURCE-SINK MIX IN MODEL SERIES2GWT       PACKAGE SERIES2GWT      CONNECTED TO MODEL SERIES2GWT       PACKAGE SSM              ON UNIT   1024 AT TIME STEP      1, STRESS PERIOD     33
 UBDSV06 SAVING              CNC IN MODEL SERIES2GWT       PACKAGE SERIES2GWT      CONNECTED TO MODEL SERIES2GWT       PACKAGE CNC              ON UNIT   1024 AT TIME STEP      1, STRESS PERIOD     33

 CONCENTRATION WILL BE SAVED ON UNIT 1025 AT END OF TIME STEP    1, STRESS PERIOD   33


  MASS BUDGET FOR ENTIRE MODEL AT END OF TIME STEP    1, STRESS PERIOD  33
  ---------------------------------------------------------------------------------------------------

     CUMULATIVE MASS      M       RATES FOR THIS TIME STEP      M/T          PACKAGE NAME    
     ------------------                 ------------------------                     ----------------

           IN:                                      IN:
           ---                                      ---
     STORAGE-AQUEOUS =       4.4306E-02       STORAGE-AQUEOUS =       1.0179E-03     MST             
               CHD_0 =           0.0000                 CHD_0 =           0.0000     SSM             
                 CNC =         330.6908                   CNC =           2.6348     CNC             

            TOTAL IN =         330.7351              TOTAL IN =           2.6358

          OUT:                                     OUT:
          ----                                     ----
     STORAGE-AQUEOUS =         154.5246       STORAGE-AQUEOUS =           0.2744     MST             
               CHD_0 =         176.0789                 CHD_0 =           2.3610     SSM             
                 CNC =           0.0000                   CNC =           0.0000     CNC             

           TOTAL OUT =         330.6035             TOTAL OUT =           2.6354

            IN - OUT =           0.1316              IN - OUT =       4.1994E-04

 PERCENT DISCREPANCY =           0.04     PERCENT DISCREPANCY =           0.02




         TIME SUMMARY AT END OF TIME STEP    1 IN STRESS PERIOD   33
                    SECONDS     MINUTES      HOURS       DAYS        YEARS
                    -----------------------------------------------------------
   TIME STEP LENGTH  300.00      5.0000     8.33333E-02 3.47222E-03 9.50643E-06
 STRESS PERIOD TIME  300.00      5.0000     8.33333E-02 3.47222E-03 9.50643E-06
         TOTAL TIME  9900.0      165.00      2.7500     0.11458     3.13712E-04


end timestep


start timestep kper="34" kstp="1" mode="normal"


 OUTPUT CONTROL FOR STRESS PERIOD 34 IS REPEATED USING SETTINGS FROM A PREVIOUS STRESS PERIOD.

 REUSING CNCS FROM LAST STRESS PERIOD
 UBDSV1 SAVING  STORAGE-AQUEOUS ON UNIT   1024 AT TIME STEP      1, STRESS PERIOD     34
 UBDSV1 SAVING     FLOW-JA-FACE ON UNIT   1024 AT TIME STEP      1, STRESS PERIOD     34
 UBDSV06 SAVING  SOURCE-SINK MIX IN MODEL SERIES2GWT       PACKAGE SERIES2GWT      CONNECTED TO MODEL SERIES2GWT       PACKAGE SSM              ON UNIT   1024 AT TIME STEP      1, STRESS PERIOD     34
 UBDSV06 SAVING              CNC IN MODEL SERIES2GWT       PACKAGE SERIES2GWT      CONNECTED TO MODEL SERIES2GWT       PACKAGE CNC              ON UNIT   1024 AT TIME STEP      1, STRESS PERIOD     34

 CONCENTRATION WILL BE SAVED ON UNIT 1025 AT END OF TIME STEP    1, STRESS PERIOD   34


  MASS BUDGET FOR ENTIRE MODEL AT END OF TIME STEP    1, STRESS PERIOD  34
  ---------------------------------------------------------------------------------------------------

     CUMULATIVE MASS      M       RATES FOR THIS TIME STEP      M/T          PACKAGE NAME    
     ------------------                 ------------------------                     ----------------

           IN:                                      IN:
           ---                                      ---
     STORAGE-AQUEOUS =       4.9425E-02       STORAGE-AQUEOUS =       1.0240E-03     MST             
               CHD_0 =           0.0000                 CHD_0 =           0.0000     SSM             
                 CNC =         343.8658                   CNC =           2.6350     CNC             

            TOTAL IN =         343.9153              TOTAL IN =           2.6360

          OUT:                                     OUT:
          ----                                     ----
     STORAGE-AQUEOUS =         155.7664       STORAGE-AQUEOUS =           0.2484     MST             
               CHD_0 =         188.0157                 CHD_0 =           2.3874     SSM             
                 CNC =           0.0000                   CNC =           0.0000     CNC             

           TOTAL OUT =         343.7822             TOTAL OUT =           2.6357

            IN - OUT =           0.1331              IN - OUT =       2.9458E-04

 PERCENT DISCREPANCY =           0.04     PERCENT DISCREPANCY =           0.01




         TIME SUMMARY AT END OF TIME STEP    1 IN STRESS PERIOD   34
                    SECONDS     MINUTES      HOURS       DAYS        YEARS
                    -----------------------------------------------------------
   TIME STEP LENGTH  300.00      5.0000     8.33333E-02 3.47222E-03 9.50643E-06
 STRESS PERIOD TIME  300.00      5.0000     8.33333E-02 3.47222E-03 9.50643E-06
         TOTAL TIME  10200.      170.00      2.8333     0.11806     3.23218E-04


end timestep


start timestep kper="35" kstp="1" mode="normal"


 OUTPUT CONTROL FOR STRESS PERIOD 35 IS REPEATED USING SETTINGS FROM A PREVIOUS STRESS PERIOD.

 REUSING CNCS FROM LAST STRESS PERIOD
 UBDSV1 SAVING  STORAGE-AQUEOUS ON UNIT   1024 AT TIME STEP      1, STRESS PERIOD     35
 UBDSV1 SAVING     FLOW-JA-FACE ON UNIT   1024 AT TIME STEP      1, STRESS PERIOD     35
 UBDSV06 SAVING  SOURCE-SINK MIX IN MODEL SERIES2GWT       PACKAGE SERIES2GWT      CONNECTED TO MODEL SERIES2GWT       PACKAGE SSM              ON UNIT   1024 AT TIME STEP      1, STRESS PERIOD     35
 UBDSV06 SAVING              CNC IN MODEL SERIES2GWT       PACKAGE SERIES2GWT      CONNECTED TO MODEL SERIES2GWT       PACKAGE CNC              ON UNIT   1024 AT TIME STEP      1, STRESS PERIOD     35

 CONCENTRATION WILL BE SAVED ON UNIT 1025 AT END OF TIME STEP    1, STRESS PERIOD   35


  MASS BUDGET FOR ENTIRE MODEL AT END OF TIME STEP    1, STRESS PERIOD  35
  ---------------------------------------------------------------------------------------------------

     CUMULATIVE MASS      M       RATES FOR THIS TIME STEP      M/T          PACKAGE NAME    
     ------------------                 ------------------------                     ----------------

           IN:                                      IN:
           ---                                      ---
     STORAGE-AQUEOUS =       5.4369E-02       STORAGE-AQUEOUS =       9.8880E-04     MST             
               CHD_0 =           0.0000                 CHD_0 =           0.0000     SSM             
                 CNC =         357.0419                   CNC =           2.6352     CNC             

            TOTAL IN =         357.0962              TOTAL IN =           2.6362

          OUT:                                     OUT:
          ----                                     ----
     STORAGE-AQUEOUS =         156.8867       STORAGE-AQUEOUS =           0.2241     MST             
               CHD_0 =         200.0743                 CHD_0 =           2.4117     SSM             
                 CNC =           0.0000                   CNC =           0.0000     CNC             

           TOTAL OUT =         356.9610             TOTAL OUT =           2.6358

            IN - OUT =           0.1352              IN - OUT =       4.2589E-04

 PERCENT DISCREPANCY =           0.04     PERCENT DISCREPANCY =           0.02




         TIME SUMMARY AT END OF TIME STEP    1 IN STRESS PERIOD   35
                    SECONDS     MINUTES      HOURS       DAYS        YEARS
                    -----------------------------------------------------------
   TIME STEP LENGTH  300.00      5.0000     8.33333E-02 3.47222E-03 9.50643E-06
 STRESS PERIOD TIME  300.00      5.0000     8.33333E-02 3.47222E-03 9.50643E-06
         TOTAL TIME  10500.      175.00      2.9167     0.12153     3.32725E-04


end timestep


start timestep kper="36" kstp="1" mode="normal"


 OUTPUT CONTROL FOR STRESS PERIOD 36 IS REPEATED USING SETTINGS FROM A PREVIOUS STRESS PERIOD.

 REUSING CNCS FROM LAST STRESS PERIOD
 UBDSV1 SAVING  STORAGE-AQUEOUS ON UNIT   1024 AT TIME STEP      1, STRESS PERIOD     36
 UBDSV1 SAVING     FLOW-JA-FACE ON UNIT   1024 AT TIME STEP      1, STRESS PERIOD     36
 UBDSV06 SAVING  SOURCE-SINK MIX IN MODEL SERIES2GWT       PACKAGE SERIES2GWT      CONNECTED TO MODEL SERIES2GWT       PACKAGE SSM              ON UNIT   1024 AT TIME STEP      1, STRESS PERIOD     36
 UBDSV06 SAVING              CNC IN MODEL SERIES2GWT       PACKAGE SERIES2GWT      CONNECTED TO MODEL SERIES2GWT       PACKAGE CNC              ON UNIT   1024 AT TIME STEP      1, STRESS PERIOD     36

 CONCENTRATION WILL BE SAVED ON UNIT 1025 AT END OF TIME STEP    1, STRESS PERIOD   36


  MASS BUDGET FOR ENTIRE MODEL AT END OF TIME STEP    1, STRESS PERIOD  36
  ---------------------------------------------------------------------------------------------------

     CUMULATIVE MASS      M       RATES FOR THIS TIME STEP      M/T          PACKAGE NAME    
     ------------------                 ------------------------                     ----------------

           IN:                                      IN:
           ---                                      ---
     STORAGE-AQUEOUS =       5.9306E-02       STORAGE-AQUEOUS =       9.8728E-04     MST             
               CHD_0 =           0.0000                 CHD_0 =           0.0000     SSM             
                 CNC =         370.2186                   CNC =           2.6354     CNC             

            TOTAL IN =         370.2780              TOTAL IN =           2.6363

          OUT:                                     OUT:
          ----                                     ----
     STORAGE-AQUEOUS =         157.8917       STORAGE-AQUEOUS =           0.2010     MST             
               CHD_0 =         212.2503                 CHD_0 =           2.4352     SSM             
                 CNC =           0.0000                   CNC =           0.0000     CNC             

           TOTAL OUT =         370.1421             TOTAL OUT =           2.6362

            IN - OUT =           0.1359              IN - OUT =       1.3394E-04

 PERCENT DISCREPANCY =           0.04     PERCENT DISCREPANCY =           0.01




         TIME SUMMARY AT END OF TIME STEP    1 IN STRESS PERIOD   36
                    SECONDS     MINUTES      HOURS       DAYS        YEARS
                    -----------------------------------------------------------
   TIME STEP LENGTH  300.00      5.0000     8.33333E-02 3.47222E-03 9.50643E-06
 STRESS PERIOD TIME  300.00      5.0000     8.33333E-02 3.47222E-03 9.50643E-06
         TOTAL TIME  10800.      180.00      3.0000     0.12500     3.42231E-04


end timestep


start timestep kper="37" kstp="1" mode="normal"


 OUTPUT CONTROL FOR STRESS PERIOD 37 IS REPEATED USING SETTINGS FROM A PREVIOUS STRESS PERIOD.

 REUSING CNCS FROM LAST STRESS PERIOD
 UBDSV1 SAVING  STORAGE-AQUEOUS ON UNIT   1024 AT TIME STEP      1, STRESS PERIOD     37
 UBDSV1 SAVING     FLOW-JA-FACE ON UNIT   1024 AT TIME STEP      1, STRESS PERIOD     37
 UBDSV06 SAVING  SOURCE-SINK MIX IN MODEL SERIES2GWT       PACKAGE SERIES2GWT      CONNECTED TO MODEL SERIES2GWT       PACKAGE SSM              ON UNIT   1024 AT TIME STEP      1, STRESS PERIOD     37
 UBDSV06 SAVING              CNC IN MODEL SERIES2GWT       PACKAGE SERIES2GWT      CONNECTED TO MODEL SERIES2GWT       PACKAGE CNC              ON UNIT   1024 AT TIME STEP      1, STRESS PERIOD     37

 CONCENTRATION WILL BE SAVED ON UNIT 1025 AT END OF TIME STEP    1, STRESS PERIOD   37


  MASS BUDGET FOR ENTIRE MODEL AT END OF TIME STEP    1, STRESS PERIOD  37
  ---------------------------------------------------------------------------------------------------

     CUMULATIVE MASS      M       RATES FOR THIS TIME STEP      M/T          PACKAGE NAME    
     ------------------                 ------------------------                     ----------------

           IN:                                      IN:
           ---                                      ---
     STORAGE-AQUEOUS =       6.3402E-02       STORAGE-AQUEOUS =       8.1932E-04     MST             
               CHD_0 =           0.0000                 CHD_0 =           0.0000     SSM             
                 CNC =         383.3957                   CNC =           2.6354     CNC             

            TOTAL IN =         383.4591              TOTAL IN =           2.6362

          OUT:                                     OUT:
          ----                                     ----
     STORAGE-AQUEOUS =         158.7918       STORAGE-AQUEOUS =           0.1800     MST             
               CHD_0 =         224.5315                 CHD_0 =           2.4562     SSM             
                 CNC =           0.0000                   CNC =           0.0000     CNC             

           TOTAL OUT =         383.3233             TOTAL OUT =           2.6362

            IN - OUT =           0.1358              IN - OUT =       1.7607E-05

 PERCENT DISCREPANCY =           0.04     PERCENT DISCREPANCY =          -0.00




         TIME SUMMARY AT END OF TIME STEP    1 IN STRESS PERIOD   37
                    SECONDS     MINUTES      HOURS       DAYS        YEARS
                    -----------------------------------------------------------
   TIME STEP LENGTH  300.00      5.0000     8.33333E-02 3.47222E-03 9.50643E-06
 STRESS PERIOD TIME  300.00      5.0000     8.33333E-02 3.47222E-03 9.50643E-06
         TOTAL TIME  11100.      185.00      3.0833     0.12847     3.51738E-04


end timestep


start timestep kper="38" kstp="1" mode="normal"


 OUTPUT CONTROL FOR STRESS PERIOD 38 IS REPEATED USING SETTINGS FROM A PREVIOUS STRESS PERIOD.

 REUSING CNCS FROM LAST STRESS PERIOD
 UBDSV1 SAVING  STORAGE-AQUEOUS ON UNIT   1024 AT TIME STEP      1, STRESS PERIOD     38
 UBDSV1 SAVING     FLOW-JA-FACE ON UNIT   1024 AT TIME STEP      1, STRESS PERIOD     38
 UBDSV06 SAVING  SOURCE-SINK MIX IN MODEL SERIES2GWT       PACKAGE SERIES2GWT      CONNECTED TO MODEL SERIES2GWT       PACKAGE SSM              ON UNIT   1024 AT TIME STEP      1, STRESS PERIOD     38
 UBDSV06 SAVING              CNC IN MODEL SERIES2GWT       PACKAGE SERIES2GWT      CONNECTED TO MODEL SERIES2GWT       PACKAGE CNC              ON UNIT   1024 AT TIME STEP      1, STRESS PERIOD     38

 CONCENTRATION WILL BE SAVED ON UNIT 1025 AT END OF TIME STEP    1, STRESS PERIOD   38


  MASS BUDGET FOR ENTIRE MODEL AT END OF TIME STEP    1, STRESS PERIOD  38
  ---------------------------------------------------------------------------------------------------

     CUMULATIVE MASS      M       RATES FOR THIS TIME STEP      M/T          PACKAGE NAME    
     ------------------                 ------------------------                     ----------------

           IN:                                      IN:
           ---                                      ---
     STORAGE-AQUEOUS =       6.6860E-02       STORAGE-AQUEOUS =       6.9145E-04     MST             
               CHD_0 =           0.0000                 CHD_0 =           0.0000     SSM             
                 CNC =         396.5730                   CNC =           2.6355     CNC             

            TOTAL IN =         396.6399              TOTAL IN =           2.6362

          OUT:                                     OUT:
          ----                                     ----
     STORAGE-AQUEOUS =         159.5952       STORAGE-AQUEOUS =           0.1607     MST             
               CHD_0 =         236.9088                 CHD_0 =           2.4754     SSM             
                 CNC =           0.0000                   CNC =           0.0000     CNC             

           TOTAL OUT =         396.5039             TOTAL OUT =           2.6361

            IN - OUT =           0.1359              IN - OUT =       3.1319E-05

 PERCENT DISCREPANCY =           0.03     PERCENT DISCREPANCY =           0.00




         TIME SUMMARY AT END OF TIME STEP    1 IN STRESS PERIOD   38
                    SECONDS     MINUTES      HOURS       DAYS        YEARS
                    -----------------------------------------------------------
   TIME STEP LENGTH  300.00      5.0000     8.33333E-02 3.47222E-03 9.50643E-06
 STRESS PERIOD TIME  300.00      5.0000     8.33333E-02 3.47222E-03 9.50643E-06
         TOTAL TIME  11400.      190.00      3.1667     0.13194     3.61244E-04


end timestep


start timestep kper="39" kstp="1" mode="normal"


 OUTPUT CONTROL FOR STRESS PERIOD 39 IS REPEATED USING SETTINGS FROM A PREVIOUS STRESS PERIOD.

 REUSING CNCS FROM LAST STRESS PERIOD
 UBDSV1 SAVING  STORAGE-AQUEOUS ON UNIT   1024 AT TIME STEP      1, STRESS PERIOD     39
 UBDSV1 SAVING     FLOW-JA-FACE ON UNIT   1024 AT TIME STEP      1, STRESS PERIOD     39
 UBDSV06 SAVING  SOURCE-SINK MIX IN MODEL SERIES2GWT       PACKAGE SERIES2GWT      CONNECTED TO MODEL SERIES2GWT       PACKAGE SSM              ON UNIT   1024 AT TIME STEP      1, STRESS PERIOD     39
 UBDSV06 SAVING              CNC IN MODEL SERIES2GWT       PACKAGE SERIES2GWT      CONNECTED TO MODEL SERIES2GWT       PACKAGE CNC              ON UNIT   1024 AT TIME STEP      1, STRESS PERIOD     39

 CONCENTRATION WILL BE SAVED ON UNIT 1025 AT END OF TIME STEP    1, STRESS PERIOD   39


  MASS BUDGET FOR ENTIRE MODEL AT END OF TIME STEP    1, STRESS PERIOD  39
  ---------------------------------------------------------------------------------------------------

     CUMULATIVE MASS      M       RATES FOR THIS TIME STEP      M/T          PACKAGE NAME    
     ------------------                 ------------------------                     ----------------

           IN:                                      IN:
           ---                                      ---
     STORAGE-AQUEOUS =       6.9789E-02       STORAGE-AQUEOUS =       5.8587E-04     MST             
               CHD_0 =           0.0000                 CHD_0 =           0.0000     SSM             
                 CNC =         409.7506                   CNC =           2.6355     CNC             

            TOTAL IN =         409.8204              TOTAL IN =           2.6361

          OUT:                                     OUT:
          ----                                     ----
     STORAGE-AQUEOUS =         160.3109       STORAGE-AQUEOUS =           0.1431     MST             
               CHD_0 =         249.3739                 CHD_0 =           2.4930     SSM             
                 CNC =           0.0000                   CNC =           0.0000     CNC             

           TOTAL OUT =         409.6848             TOTAL OUT =           2.6362

            IN - OUT =           0.1356              IN - OUT =       7.4011E-05

 PERCENT DISCREPANCY =           0.03     PERCENT DISCREPANCY =          -0.00




         TIME SUMMARY AT END OF TIME STEP    1 IN STRESS PERIOD   39
                    SECONDS     MINUTES      HOURS       DAYS        YEARS
                    -----------------------------------------------------------
   TIME STEP LENGTH  300.00      5.0000     8.33333E-02 3.47222E-03 9.50643E-06
 STRESS PERIOD TIME  300.00      5.0000     8.33333E-02 3.47222E-03 9.50643E-06
         TOTAL TIME  11700.      195.00      3.2500     0.13542     3.70751E-04


end timestep


start timestep kper="40" kstp="1" mode="normal"


 OUTPUT CONTROL FOR STRESS PERIOD 40 IS REPEATED USING SETTINGS FROM A PREVIOUS STRESS PERIOD.

 REUSING CNCS FROM LAST STRESS PERIOD
 UBDSV1 SAVING  STORAGE-AQUEOUS ON UNIT   1024 AT TIME STEP      1, STRESS PERIOD     40
 UBDSV1 SAVING     FLOW-JA-FACE ON UNIT   1024 AT TIME STEP      1, STRESS PERIOD     40
 UBDSV06 SAVING  SOURCE-SINK MIX IN MODEL SERIES2GWT       PACKAGE SERIES2GWT      CONNECTED TO MODEL SERIES2GWT       PACKAGE SSM              ON UNIT   1024 AT TIME STEP      1, STRESS PERIOD     40
 UBDSV06 SAVING              CNC IN MODEL SERIES2GWT       PACKAGE SERIES2GWT      CONNECTED TO MODEL SERIES2GWT       PACKAGE CNC              ON UNIT   1024 AT TIME STEP      1, STRESS PERIOD     40

 CONCENTRATION WILL BE SAVED ON UNIT 1025 AT END OF TIME STEP    1, STRESS PERIOD   40


  MASS BUDGET FOR ENTIRE MODEL AT END OF TIME STEP    1, STRESS PERIOD  40
  ---------------------------------------------------------------------------------------------------

     CUMULATIVE MASS      M       RATES FOR THIS TIME STEP      M/T          PACKAGE NAME    
     ------------------                 ------------------------                     ----------------

           IN:                                      IN:
           ---                                      ---
     STORAGE-AQUEOUS =       7.2298E-02       STORAGE-AQUEOUS =       5.0188E-04     MST             
               CHD_0 =           0.0000                 CHD_0 =           0.0000     SSM             
                 CNC =         422.9284                   CNC =           2.6356     CNC             

            TOTAL IN =         423.0007              TOTAL IN =           2.6361

          OUT:                                     OUT:
          ----                                     ----
     STORAGE-AQUEOUS =         160.9466       STORAGE-AQUEOUS =           0.1271     MST             
               CHD_0 =         261.9192                 CHD_0 =           2.5091     SSM             
                 CNC =           0.0000                   CNC =           0.0000     CNC             

           TOTAL OUT =         422.8658             TOTAL OUT =           2.6362

            IN - OUT =           0.1350              IN - OUT =       1.1932E-04

 PERCENT DISCREPANCY =           0.03     PERCENT DISCREPANCY =          -0.00




         TIME SUMMARY AT END OF TIME STEP    1 IN STRESS PERIOD   40
                    SECONDS     MINUTES      HOURS       DAYS        YEARS
                    -----------------------------------------------------------
   TIME STEP LENGTH  300.00      5.0000     8.33333E-02 3.47222E-03 9.50643E-06
 STRESS PERIOD TIME  300.00      5.0000     8.33333E-02 3.47222E-03 9.50643E-06
         TOTAL TIME  12000.      200.00      3.3333     0.13889     3.80257E-04


end timestep


start timestep kper="41" kstp="1" mode="normal"


 OUTPUT CONTROL FOR STRESS PERIOD 41 IS REPEATED USING SETTINGS FROM A PREVIOUS STRESS PERIOD.

 REUSING CNCS FROM LAST STRESS PERIOD
 UBDSV1 SAVING  STORAGE-AQUEOUS ON UNIT   1024 AT TIME STEP      1, STRESS PERIOD     41
 UBDSV1 SAVING     FLOW-JA-FACE ON UNIT   1024 AT TIME STEP      1, STRESS PERIOD     41
 UBDSV06 SAVING  SOURCE-SINK MIX IN MODEL SERIES2GWT       PACKAGE SERIES2GWT      CONNECTED TO MODEL SERIES2GWT       PACKAGE SSM              ON UNIT   1024 AT TIME STEP      1, STRESS PERIOD     41
 UBDSV06 SAVING              CNC IN MODEL SERIES2GWT       PACKAGE SERIES2GWT      CONNECTED TO MODEL SERIES2GWT       PACKAGE CNC              ON UNIT   1024 AT TIME STEP      1, STRESS PERIOD     41

 CONCENTRATION WILL BE SAVED ON UNIT 1025 AT END OF TIME STEP    1, STRESS PERIOD   41


  MASS BUDGET FOR ENTIRE MODEL AT END OF TIME STEP    1, STRESS PERIOD  41
  ---------------------------------------------------------------------------------------------------

     CUMULATIVE MASS      M       RATES FOR THIS TIME STEP      M/T          PACKAGE NAME    
     ------------------                 ------------------------                     ----------------

           IN:                                      IN:
           ---                                      ---
     STORAGE-AQUEOUS =       7.4481E-02       STORAGE-AQUEOUS =       4.3649E-04     MST             
               CHD_0 =           0.0000                 CHD_0 =           0.0000     SSM             
                 CNC =         436.1065                   CNC =           2.6356     CNC             

            TOTAL IN =         436.1810              TOTAL IN =           2.6361

          OUT:                                     OUT:
          ----                                     ----
     STORAGE-AQUEOUS =         161.5098       STORAGE-AQUEOUS =           0.1126     MST             
               CHD_0 =         274.5372                 CHD_0 =           2.5236     SSM             
                 CNC =           0.0000                   CNC =           0.0000     CNC             

           TOTAL OUT =         436.0470             TOTAL OUT =           2.6363

            IN - OUT =           0.1340              IN - OUT =       1.9638E-04

 PERCENT DISCREPANCY =           0.03     PERCENT DISCREPANCY =          -0.01




         TIME SUMMARY AT END OF TIME STEP    1 IN STRESS PERIOD   41
                    SECONDS     MINUTES      HOURS       DAYS        YEARS
                    -----------------------------------------------------------
   TIME STEP LENGTH  300.00      5.0000     8.33333E-02 3.47222E-03 9.50643E-06
 STRESS PERIOD TIME  300.00      5.0000     8.33333E-02 3.47222E-03 9.50643E-06
         TOTAL TIME  12300.      205.00      3.4167     0.14236     3.89763E-04


end timestep


start timestep kper="42" kstp="1" mode="normal"


 OUTPUT CONTROL FOR STRESS PERIOD 42 IS REPEATED USING SETTINGS FROM A PREVIOUS STRESS PERIOD.

 REUSING CNCS FROM LAST STRESS PERIOD
 UBDSV1 SAVING  STORAGE-AQUEOUS ON UNIT   1024 AT TIME STEP      1, STRESS PERIOD     42
 UBDSV1 SAVING     FLOW-JA-FACE ON UNIT   1024 AT TIME STEP      1, STRESS PERIOD     42
 UBDSV06 SAVING  SOURCE-SINK MIX IN MODEL SERIES2GWT       PACKAGE SERIES2GWT      CONNECTED TO MODEL SERIES2GWT       PACKAGE SSM              ON UNIT   1024 AT TIME STEP      1, STRESS PERIOD     42
 UBDSV06 SAVING              CNC IN MODEL SERIES2GWT       PACKAGE SERIES2GWT      CONNECTED TO MODEL SERIES2GWT       PACKAGE CNC              ON UNIT   1024 AT TIME STEP      1, STRESS PERIOD     42

 CONCENTRATION WILL BE SAVED ON UNIT 1025 AT END OF TIME STEP    1, STRESS PERIOD   42


  MASS BUDGET FOR ENTIRE MODEL AT END OF TIME STEP    1, STRESS PERIOD  42
  ---------------------------------------------------------------------------------------------------

     CUMULATIVE MASS      M       RATES FOR THIS TIME STEP      M/T          PACKAGE NAME    
     ------------------                 ------------------------                     ----------------

           IN:                                      IN:
           ---                                      ---
     STORAGE-AQUEOUS =       7.6418E-02       STORAGE-AQUEOUS =       3.8735E-04     MST             
               CHD_0 =           0.0000                 CHD_0 =           0.0000     SSM             
                 CNC =         449.2849                   CNC =           2.6357     CNC             

            TOTAL IN =         449.3613              TOTAL IN =           2.6361

          OUT:                                     OUT:
          ----                                     ----
     STORAGE-AQUEOUS =         162.0075       STORAGE-AQUEOUS =       9.9542E-02     MST             
               CHD_0 =         287.2212                 CHD_0 =           2.5368     SSM             
                 CNC =           0.0000                   CNC =           0.0000     CNC             

           TOTAL OUT =         449.2287             TOTAL OUT =           2.6363

            IN - OUT =           0.1326              IN - OUT =       2.7019E-04

 PERCENT DISCREPANCY =           0.03     PERCENT DISCREPANCY =          -0.01




         TIME SUMMARY AT END OF TIME STEP    1 IN STRESS PERIOD   42
                    SECONDS     MINUTES      HOURS       DAYS        YEARS
                    -----------------------------------------------------------
   TIME STEP LENGTH  300.00      5.0000     8.33333E-02 3.47222E-03 9.50643E-06
 STRESS PERIOD TIME  300.00      5.0000     8.33333E-02 3.47222E-03 9.50643E-06
         TOTAL TIME  12600.      210.00      3.5000     0.14583     3.99270E-04


end timestep


start timestep kper="43" kstp="1" mode="normal"


 OUTPUT CONTROL FOR STRESS PERIOD 43 IS REPEATED USING SETTINGS FROM A PREVIOUS STRESS PERIOD.

 REUSING CNCS FROM LAST STRESS PERIOD
 UBDSV1 SAVING  STORAGE-AQUEOUS ON UNIT   1024 AT TIME STEP      1, STRESS PERIOD     43
 UBDSV1 SAVING     FLOW-JA-FACE ON UNIT   1024 AT TIME STEP      1, STRESS PERIOD     43
 UBDSV06 SAVING  SOURCE-SINK MIX IN MODEL SERIES2GWT       PACKAGE SERIES2GWT      CONNECTED TO MODEL SERIES2GWT       PACKAGE SSM              ON UNIT   1024 AT TIME STEP      1, STRESS PERIOD     43
 UBDSV06 SAVING              CNC IN MODEL SERIES2GWT       PACKAGE SERIES2GWT      CONNECTED TO MODEL SERIES2GWT       PACKAGE CNC              ON UNIT   1024 AT TIME STEP      1, STRESS PERIOD     43

 CONCENTRATION WILL BE SAVED ON UNIT 1025 AT END OF TIME STEP    1, STRESS PERIOD   43


  MASS BUDGET FOR ENTIRE MODEL AT END OF TIME STEP    1, STRESS PERIOD  43
  ---------------------------------------------------------------------------------------------------

     CUMULATIVE MASS      M       RATES FOR THIS TIME STEP      M/T          PACKAGE NAME    
     ------------------                 ------------------------                     ----------------

           IN:                                      IN:
           ---                                      ---
     STORAGE-AQUEOUS =       7.8177E-02       STORAGE-AQUEOUS =       3.5182E-04     MST             
               CHD_0 =           0.0000                 CHD_0 =           0.0000     SSM             
                 CNC =         462.4635                   CNC =           2.6357     CNC             

            TOTAL IN =         462.5416              TOTAL IN =           2.6361

          OUT:                                     OUT:
          ----                                     ----
     STORAGE-AQUEOUS =         162.4467       STORAGE-AQUEOUS =       8.7834E-02     MST             
               CHD_0 =         299.9644                 CHD_0 =           2.5486     SSM             
                 CNC =           0.0000                   CNC =           0.0000     CNC             

           TOTAL OUT =         462.4111             TOTAL OUT =           2.6365

            IN - OUT =           0.1306              IN - OUT =       4.1233E-04

 PERCENT DISCREPANCY =           0.03     PERCENT DISCREPANCY =          -0.02




         TIME SUMMARY AT END OF TIME STEP    1 IN STRESS PERIOD   43
                    SECONDS     MINUTES      HOURS       DAYS        YEARS
                    -----------------------------------------------------------
   TIME STEP LENGTH  300.00      5.0000     8.33333E-02 3.47222E-03 9.50643E-06
 STRESS PERIOD TIME  300.00      5.0000     8.33333E-02 3.47222E-03 9.50643E-06
         TOTAL TIME  12900.      215.00      3.5833     0.14931     4.08776E-04


end timestep


start timestep kper="44" kstp="1" mode="normal"


 OUTPUT CONTROL FOR STRESS PERIOD 44 IS REPEATED USING SETTINGS FROM A PREVIOUS STRESS PERIOD.

 REUSING CNCS FROM LAST STRESS PERIOD
 UBDSV1 SAVING  STORAGE-AQUEOUS ON UNIT   1024 AT TIME STEP      1, STRESS PERIOD     44
 UBDSV1 SAVING     FLOW-JA-FACE ON UNIT   1024 AT TIME STEP      1, STRESS PERIOD     44
 UBDSV06 SAVING  SOURCE-SINK MIX IN MODEL SERIES2GWT       PACKAGE SERIES2GWT      CONNECTED TO MODEL SERIES2GWT       PACKAGE SSM              ON UNIT   1024 AT TIME STEP      1, STRESS PERIOD     44
 UBDSV06 SAVING              CNC IN MODEL SERIES2GWT       PACKAGE SERIES2GWT      CONNECTED TO MODEL SERIES2GWT       PACKAGE CNC              ON UNIT   1024 AT TIME STEP      1, STRESS PERIOD     44

 CONCENTRATION WILL BE SAVED ON UNIT 1025 AT END OF TIME STEP    1, STRESS PERIOD   44


  MASS BUDGET FOR ENTIRE MODEL AT END OF TIME STEP    1, STRESS PERIOD  44
  ---------------------------------------------------------------------------------------------------

     CUMULATIVE MASS      M       RATES FOR THIS TIME STEP      M/T          PACKAGE NAME    
     ------------------                 ------------------------                     ----------------

           IN:                                      IN:
           ---                                      ---
     STORAGE-AQUEOUS =       7.9808E-02       STORAGE-AQUEOUS =       3.2621E-04     MST             
               CHD_0 =           0.0000                 CHD_0 =           0.0000     SSM             
                 CNC =         475.6423                   CNC =           2.6358     CNC             

            TOTAL IN =         475.7221              TOTAL IN =           2.6361

          OUT:                                     OUT:
          ----                                     ----
     STORAGE-AQUEOUS =         162.8332       STORAGE-AQUEOUS =       7.7316E-02     MST             
               CHD_0 =         312.7609                 CHD_0 =           2.5593     SSM             
                 CNC =           0.0000                   CNC =           0.0000     CNC             

           TOTAL OUT =         475.5941             TOTAL OUT =           2.6366

            IN - OUT =           0.1280              IN - OUT =       5.1615E-04

 PERCENT DISCREPANCY =           0.03     PERCENT DISCREPANCY =          -0.02




         TIME SUMMARY AT END OF TIME STEP    1 IN STRESS PERIOD   44
                    SECONDS     MINUTES      HOURS       DAYS        YEARS
                    -----------------------------------------------------------
   TIME STEP LENGTH  300.00      5.0000     8.33333E-02 3.47222E-03 9.50643E-06
 STRESS PERIOD TIME  300.00      5.0000     8.33333E-02 3.47222E-03 9.50643E-06
         TOTAL TIME  13200.      220.00      3.6667     0.15278     4.18283E-04


end timestep


start timestep kper="45" kstp="1" mode="normal"


 OUTPUT CONTROL FOR STRESS PERIOD 45 IS REPEATED USING SETTINGS FROM A PREVIOUS STRESS PERIOD.

 REUSING CNCS FROM LAST STRESS PERIOD
 UBDSV1 SAVING  STORAGE-AQUEOUS ON UNIT   1024 AT TIME STEP      1, STRESS PERIOD     45
 UBDSV1 SAVING     FLOW-JA-FACE ON UNIT   1024 AT TIME STEP      1, STRESS PERIOD     45
 UBDSV06 SAVING  SOURCE-SINK MIX IN MODEL SERIES2GWT       PACKAGE SERIES2GWT      CONNECTED TO MODEL SERIES2GWT       PACKAGE SSM              ON UNIT   1024 AT TIME STEP      1, STRESS PERIOD     45
 UBDSV06 SAVING              CNC IN MODEL SERIES2GWT       PACKAGE SERIES2GWT      CONNECTED TO MODEL SERIES2GWT       PACKAGE CNC              ON UNIT   1024 AT TIME STEP      1, STRESS PERIOD     45

 CONCENTRATION WILL BE SAVED ON UNIT 1025 AT END OF TIME STEP    1, STRESS PERIOD   45


  MASS BUDGET FOR ENTIRE MODEL AT END OF TIME STEP    1, STRESS PERIOD  45
  ---------------------------------------------------------------------------------------------------

     CUMULATIVE MASS      M       RATES FOR THIS TIME STEP      M/T          PACKAGE NAME    
     ------------------                 ------------------------                     ----------------

           IN:                                      IN:
           ---                                      ---
     STORAGE-AQUEOUS =       8.1319E-02       STORAGE-AQUEOUS =       3.0223E-04     MST             
               CHD_0 =           0.0000                 CHD_0 =           0.0000     SSM             
                 CNC =         488.8213                   CNC =           2.6358     CNC             

            TOTAL IN =         488.9026              TOTAL IN =           2.6361

          OUT:                                     OUT:
          ----                                     ----
     STORAGE-AQUEOUS =         163.1727       STORAGE-AQUEOUS =       6.7885E-02     MST             
               CHD_0 =         325.6048                 CHD_0 =           2.5688     SSM             
                 CNC =           0.0000                   CNC =           0.0000     CNC             

           TOTAL OUT =         488.7774             TOTAL OUT =           2.6367

            IN - OUT =           0.1252              IN - OUT =       5.5196E-04

 PERCENT DISCREPANCY =           0.03     PERCENT DISCREPANCY =          -0.02




         TIME SUMMARY AT END OF TIME STEP    1 IN STRESS PERIOD   45
                    SECONDS     MINUTES      HOURS       DAYS        YEARS
                    -----------------------------------------------------------
   TIME STEP LENGTH  300.00      5.0000     8.33333E-02 3.47222E-03 9.50643E-06
 STRESS PERIOD TIME  300.00      5.0000     8.33333E-02 3.47222E-03 9.50643E-06
         TOTAL TIME  13500.      225.00      3.7500     0.15625     4.27789E-04


end timestep


start timestep kper="46" kstp="1" mode="normal"


 OUTPUT CONTROL FOR STRESS PERIOD 46 IS REPEATED USING SETTINGS FROM A PREVIOUS STRESS PERIOD.

 REUSING CNCS FROM LAST STRESS PERIOD
 UBDSV1 SAVING  STORAGE-AQUEOUS ON UNIT   1024 AT TIME STEP      1, STRESS PERIOD     46
 UBDSV1 SAVING     FLOW-JA-FACE ON UNIT   1024 AT TIME STEP      1, STRESS PERIOD     46
 UBDSV06 SAVING  SOURCE-SINK MIX IN MODEL SERIES2GWT       PACKAGE SERIES2GWT      CONNECTED TO MODEL SERIES2GWT       PACKAGE SSM              ON UNIT   1024 AT TIME STEP      1, STRESS PERIOD     46
 UBDSV06 SAVING              CNC IN MODEL SERIES2GWT       PACKAGE SERIES2GWT      CONNECTED TO MODEL SERIES2GWT       PACKAGE CNC              ON UNIT   1024 AT TIME STEP      1, STRESS PERIOD     46

 CONCENTRATION WILL BE SAVED ON UNIT 1025 AT END OF TIME STEP    1, STRESS PERIOD   46


  MASS BUDGET FOR ENTIRE MODEL AT END OF TIME STEP    1, STRESS PERIOD  46
  ---------------------------------------------------------------------------------------------------

     CUMULATIVE MASS      M       RATES FOR THIS TIME STEP      M/T          PACKAGE NAME    
     ------------------                 ------------------------                     ----------------

           IN:                                      IN:
           ---                                      ---
     STORAGE-AQUEOUS =       8.2764E-02       STORAGE-AQUEOUS =       2.8905E-04     MST             
               CHD_0 =           0.0000                 CHD_0 =           0.0000     SSM             
                 CNC =         502.0006                   CNC =           2.6359     CNC             

            TOTAL IN =         502.0834              TOTAL IN =           2.6361

          OUT:                                     OUT:
          ----                                     ----
     STORAGE-AQUEOUS =         163.4704       STORAGE-AQUEOUS =       5.9553E-02     MST             
               CHD_0 =         338.4909                 CHD_0 =           2.5772     SSM             
                 CNC =           0.0000                   CNC =           0.0000     CNC             

           TOTAL OUT =         501.9613             TOTAL OUT =           2.6368

            IN - OUT =           0.1221              IN - OUT =       6.3093E-04

 PERCENT DISCREPANCY =           0.02     PERCENT DISCREPANCY =          -0.02




         TIME SUMMARY AT END OF TIME STEP    1 IN STRESS PERIOD   46
                    SECONDS     MINUTES      HOURS       DAYS        YEARS
                    -----------------------------------------------------------
   TIME STEP LENGTH  300.00      5.0000     8.33333E-02 3.47222E-03 9.50643E-06
 STRESS PERIOD TIME  300.00      5.0000     8.33333E-02 3.47222E-03 9.50643E-06
         TOTAL TIME  13800.      230.00      3.8333     0.15972     4.37296E-04


end timestep


start timestep kper="47" kstp="1" mode="normal"


 OUTPUT CONTROL FOR STRESS PERIOD 47 IS REPEATED USING SETTINGS FROM A PREVIOUS STRESS PERIOD.

 REUSING CNCS FROM LAST STRESS PERIOD
 UBDSV1 SAVING  STORAGE-AQUEOUS ON UNIT   1024 AT TIME STEP      1, STRESS PERIOD     47
 UBDSV1 SAVING     FLOW-JA-FACE ON UNIT   1024 AT TIME STEP      1, STRESS PERIOD     47
 UBDSV06 SAVING  SOURCE-SINK MIX IN MODEL SERIES2GWT       PACKAGE SERIES2GWT      CONNECTED TO MODEL SERIES2GWT       PACKAGE SSM              ON UNIT   1024 AT TIME STEP      1, STRESS PERIOD     47
 UBDSV06 SAVING              CNC IN MODEL SERIES2GWT       PACKAGE SERIES2GWT      CONNECTED TO MODEL SERIES2GWT       PACKAGE CNC              ON UNIT   1024 AT TIME STEP      1, STRESS PERIOD     47

 CONCENTRATION WILL BE SAVED ON UNIT 1025 AT END OF TIME STEP    1, STRESS PERIOD   47


  MASS BUDGET FOR ENTIRE MODEL AT END OF TIME STEP    1, STRESS PERIOD  47
  ---------------------------------------------------------------------------------------------------

     CUMULATIVE MASS      M       RATES FOR THIS TIME STEP      M/T          PACKAGE NAME    
     ------------------                 ------------------------                     ----------------

           IN:                                      IN:
           ---                                      ---
     STORAGE-AQUEOUS =       8.4160E-02       STORAGE-AQUEOUS =       2.7911E-04     MST             
               CHD_0 =           0.0000                 CHD_0 =           0.0000     SSM             
                 CNC =         515.1801                   CNC =           2.6359     CNC             

            TOTAL IN =         515.2643              TOTAL IN =           2.6362

          OUT:                                     OUT:
          ----                                     ----
     STORAGE-AQUEOUS =         163.7314       STORAGE-AQUEOUS =       5.2198E-02     MST             
               CHD_0 =         351.4144                 CHD_0 =           2.5847     SSM             
                 CNC =           0.0000                   CNC =           0.0000     CNC             

           TOTAL OUT =         515.1458             TOTAL OUT =           2.6369

            IN - OUT =           0.1185              IN - OUT =       7.1750E-04

 PERCENT DISCREPANCY =           0.02     PERCENT DISCREPANCY =          -0.03




         TIME SUMMARY AT END OF TIME STEP    1 IN STRESS PERIOD   47
                    SECONDS     MINUTES      HOURS       DAYS        YEARS
                    -----------------------------------------------------------
   TIME STEP LENGTH  300.00      5.0000     8.33333E-02 3.47222E-03 9.50643E-06
 STRESS PERIOD TIME  300.00      5.0000     8.33333E-02 3.47222E-03 9.50643E-06
         TOTAL TIME  14100.      235.00      3.9167     0.16319     4.46802E-04


end timestep


start timestep kper="48" kstp="1" mode="normal"


 OUTPUT CONTROL FOR STRESS PERIOD 48 IS REPEATED USING SETTINGS FROM A PREVIOUS STRESS PERIOD.

 REUSING CNCS FROM LAST STRESS PERIOD
 UBDSV1 SAVING  STORAGE-AQUEOUS ON UNIT   1024 AT TIME STEP      1, STRESS PERIOD     48
 UBDSV1 SAVING     FLOW-JA-FACE ON UNIT   1024 AT TIME STEP      1, STRESS PERIOD     48
 UBDSV06 SAVING  SOURCE-SINK MIX IN MODEL SERIES2GWT       PACKAGE SERIES2GWT      CONNECTED TO MODEL SERIES2GWT       PACKAGE SSM              ON UNIT   1024 AT TIME STEP      1, STRESS PERIOD     48
 UBDSV06 SAVING              CNC IN MODEL SERIES2GWT       PACKAGE SERIES2GWT      CONNECTED TO MODEL SERIES2GWT       PACKAGE CNC              ON UNIT   1024 AT TIME STEP      1, STRESS PERIOD     48

 CONCENTRATION WILL BE SAVED ON UNIT 1025 AT END OF TIME STEP    1, STRESS PERIOD   48


  MASS BUDGET FOR ENTIRE MODEL AT END OF TIME STEP    1, STRESS PERIOD  48
  ---------------------------------------------------------------------------------------------------

     CUMULATIVE MASS      M       RATES FOR THIS TIME STEP      M/T          PACKAGE NAME    
     ------------------                 ------------------------                     ----------------

           IN:                                      IN:
           ---                                      ---
     STORAGE-AQUEOUS =       8.5523E-02       STORAGE-AQUEOUS =       2.7258E-04     MST             
               CHD_0 =           0.0000                 CHD_0 =           0.0000     SSM             
                 CNC =         528.3598                   CNC =           2.6359     CNC             

            TOTAL IN =         528.4453              TOTAL IN =           2.6362

          OUT:                                     OUT:
          ----                                     ----
     STORAGE-AQUEOUS =         163.9601       STORAGE-AQUEOUS =       4.5742E-02     MST             
               CHD_0 =         364.3709                 CHD_0 =           2.5913     SSM             
                 CNC =           0.0000                   CNC =           0.0000     CNC             

           TOTAL OUT =         528.3310             TOTAL OUT =           2.6370

            IN - OUT =           0.1143              IN - OUT =       8.3373E-04

 PERCENT DISCREPANCY =           0.02     PERCENT DISCREPANCY =          -0.03




         TIME SUMMARY AT END OF TIME STEP    1 IN STRESS PERIOD   48
                    SECONDS     MINUTES      HOURS       DAYS        YEARS
                    -----------------------------------------------------------
   TIME STEP LENGTH  300.00      5.0000     8.33333E-02 3.47222E-03 9.50643E-06
 STRESS PERIOD TIME  300.00      5.0000     8.33333E-02 3.47222E-03 9.50643E-06
         TOTAL TIME  14400.      240.00      4.0000     0.16667     4.56308E-04


end timestep


start timestep kper="49" kstp="1" mode="normal"


 OUTPUT CONTROL FOR STRESS PERIOD 49 IS REPEATED USING SETTINGS FROM A PREVIOUS STRESS PERIOD.

 REUSING CNCS FROM LAST STRESS PERIOD
 UBDSV1 SAVING  STORAGE-AQUEOUS ON UNIT   1024 AT TIME STEP      1, STRESS PERIOD     49
 UBDSV1 SAVING     FLOW-JA-FACE ON UNIT   1024 AT TIME STEP      1, STRESS PERIOD     49
 UBDSV06 SAVING  SOURCE-SINK MIX IN MODEL SERIES2GWT       PACKAGE SERIES2GWT      CONNECTED TO MODEL SERIES2GWT       PACKAGE SSM              ON UNIT   1024 AT TIME STEP      1, STRESS PERIOD     49
 UBDSV06 SAVING              CNC IN MODEL SERIES2GWT       PACKAGE SERIES2GWT      CONNECTED TO MODEL SERIES2GWT       PACKAGE CNC              ON UNIT   1024 AT TIME STEP      1, STRESS PERIOD     49

 CONCENTRATION WILL BE SAVED ON UNIT 1025 AT END OF TIME STEP    1, STRESS PERIOD   49


  MASS BUDGET FOR ENTIRE MODEL AT END OF TIME STEP    1, STRESS PERIOD  49
  ---------------------------------------------------------------------------------------------------

     CUMULATIVE MASS      M       RATES FOR THIS TIME STEP      M/T          PACKAGE NAME    
     ------------------                 ------------------------                     ----------------

           IN:                                      IN:
           ---                                      ---
     STORAGE-AQUEOUS =       8.6860E-02       STORAGE-AQUEOUS =       2.6742E-04     MST             
               CHD_0 =           0.0000                 CHD_0 =           0.0000     SSM             
                 CNC =         541.5397                   CNC =           2.6360     CNC             

            TOTAL IN =         541.6266              TOTAL IN =           2.6363

          OUT:                                     OUT:
          ----                                     ----
     STORAGE-AQUEOUS =         164.1605       STORAGE-AQUEOUS =       4.0068E-02     MST             
               CHD_0 =         377.3565                 CHD_0 =           2.5971     SSM             
                 CNC =           0.0000                   CNC =           0.0000     CNC             

           TOTAL OUT =         541.5170             TOTAL OUT =           2.6372

            IN - OUT =           0.1096              IN - OUT =       9.4286E-04

 PERCENT DISCREPANCY =           0.02     PERCENT DISCREPANCY =          -0.04




         TIME SUMMARY AT END OF TIME STEP    1 IN STRESS PERIOD   49
                    SECONDS     MINUTES      HOURS       DAYS        YEARS
                    -----------------------------------------------------------
   TIME STEP LENGTH  300.00      5.0000     8.33333E-02 3.47222E-03 9.50643E-06
 STRESS PERIOD TIME  300.00      5.0000     8.33333E-02 3.47222E-03 9.50643E-06
         TOTAL TIME  14700.      245.00      4.0833     0.17014     4.65815E-04


end timestep


start timestep kper="50" kstp="1" mode="normal"


 OUTPUT CONTROL FOR STRESS PERIOD 50 IS REPEATED USING SETTINGS FROM A PREVIOUS STRESS PERIOD.

 REUSING CNCS FROM LAST STRESS PERIOD
 UBDSV1 SAVING  STORAGE-AQUEOUS ON UNIT   1024 AT TIME STEP      1, STRESS PERIOD     50
 UBDSV1 SAVING     FLOW-JA-FACE ON UNIT   1024 AT TIME STEP      1, STRESS PERIOD     50
 UBDSV06 SAVING  SOURCE-SINK MIX IN MODEL SERIES2GWT       PACKAGE SERIES2GWT      CONNECTED TO MODEL SERIES2GWT       PACKAGE SSM              ON UNIT   1024 AT TIME STEP      1, STRESS PERIOD     50
 UBDSV06 SAVING              CNC IN MODEL SERIES2GWT       PACKAGE SERIES2GWT      CONNECTED TO MODEL SERIES2GWT       PACKAGE CNC              ON UNIT   1024 AT TIME STEP      1, STRESS PERIOD     50

 CONCENTRATION WILL BE SAVED ON UNIT 1025 AT END OF TIME STEP    1, STRESS PERIOD   50


  MASS BUDGET FOR ENTIRE MODEL AT END OF TIME STEP    1, STRESS PERIOD  50
  ---------------------------------------------------------------------------------------------------

     CUMULATIVE MASS      M       RATES FOR THIS TIME STEP      M/T          PACKAGE NAME    
     ------------------                 ------------------------                     ----------------

           IN:                                      IN:
           ---                                      ---
     STORAGE-AQUEOUS =       8.8177E-02       STORAGE-AQUEOUS =       2.6346E-04     MST             
               CHD_0 =           0.0000                 CHD_0 =           0.0000     SSM             
                 CNC =         554.7198                   CNC =           2.6360     CNC             

            TOTAL IN =         554.8080              TOTAL IN =           2.6363

          OUT:                                     OUT:
          ----                                     ----
     STORAGE-AQUEOUS =         164.3361       STORAGE-AQUEOUS =       3.5120E-02     MST             
               CHD_0 =         390.3677                 CHD_0 =           2.6022     SSM             
                 CNC =           0.0000                   CNC =           0.0000     CNC             

           TOTAL OUT =         554.7038             TOTAL OUT =           2.6374

            IN - OUT =           0.1042              IN - OUT =       1.0737E-03

 PERCENT DISCREPANCY =           0.02     PERCENT DISCREPANCY =          -0.04




         TIME SUMMARY AT END OF TIME STEP    1 IN STRESS PERIOD   50
                    SECONDS     MINUTES      HOURS       DAYS        YEARS
                    -----------------------------------------------------------
   TIME STEP LENGTH  300.00      5.0000     8.33333E-02 3.47222E-03 9.50643E-06
 STRESS PERIOD TIME  300.00      5.0000     8.33333E-02 3.47222E-03 9.50643E-06
         TOTAL TIME  15000.      250.00      4.1667     0.17361     4.75321E-04


end timestep


start timestep kper="51" kstp="1" mode="normal"


 OUTPUT CONTROL FOR STRESS PERIOD 51 IS REPEATED USING SETTINGS FROM A PREVIOUS STRESS PERIOD.

 REUSING CNCS FROM LAST STRESS PERIOD
 UBDSV1 SAVING  STORAGE-AQUEOUS ON UNIT   1024 AT TIME STEP      1, STRESS PERIOD     51
 UBDSV1 SAVING     FLOW-JA-FACE ON UNIT   1024 AT TIME STEP      1, STRESS PERIOD     51
 UBDSV06 SAVING  SOURCE-SINK MIX IN MODEL SERIES2GWT       PACKAGE SERIES2GWT      CONNECTED TO MODEL SERIES2GWT       PACKAGE SSM              ON UNIT   1024 AT TIME STEP      1, STRESS PERIOD     51
 UBDSV06 SAVING              CNC IN MODEL SERIES2GWT       PACKAGE SERIES2GWT      CONNECTED TO MODEL SERIES2GWT       PACKAGE CNC              ON UNIT   1024 AT TIME STEP      1, STRESS PERIOD     51

 CONCENTRATION WILL BE SAVED ON UNIT 1025 AT END OF TIME STEP    1, STRESS PERIOD   51


  MASS BUDGET FOR ENTIRE MODEL AT END OF TIME STEP    1, STRESS PERIOD  51
  ---------------------------------------------------------------------------------------------------

     CUMULATIVE MASS      M       RATES FOR THIS TIME STEP      M/T          PACKAGE NAME    
     ------------------                 ------------------------                     ----------------

           IN:                                      IN:
           ---                                      ---
     STORAGE-AQUEOUS =       8.9481E-02       STORAGE-AQUEOUS =       2.6073E-04     MST             
               CHD_0 =           0.0000                 CHD_0 =           0.0000     SSM             
                 CNC =         567.9002                   CNC =           2.6361     CNC             

            TOTAL IN =         567.9897              TOTAL IN =           2.6363

          OUT:                                     OUT:
          ----                                     ----
     STORAGE-AQUEOUS =         164.4900       STORAGE-AQUEOUS =       3.0793E-02     MST             
               CHD_0 =         403.4014                 CHD_0 =           2.6067     SSM             
                 CNC =           0.0000                   CNC =           0.0000     CNC             

           TOTAL OUT =         567.8914             TOTAL OUT =           2.6375

            IN - OUT =       9.8240E-02              IN - OUT =       1.2010E-03

 PERCENT DISCREPANCY =           0.02     PERCENT DISCREPANCY =          -0.05




         TIME SUMMARY AT END OF TIME STEP    1 IN STRESS PERIOD   51
                    SECONDS     MINUTES      HOURS       DAYS        YEARS
                    -----------------------------------------------------------
   TIME STEP LENGTH  300.00      5.0000     8.33333E-02 3.47222E-03 9.50643E-06
 STRESS PERIOD TIME  300.00      5.0000     8.33333E-02 3.47222E-03 9.50643E-06
         TOTAL TIME  15300.      255.00      4.2500     0.17708     4.84828E-04


end timestep


start timestep kper="52" kstp="1" mode="normal"


 OUTPUT CONTROL FOR STRESS PERIOD 52 IS REPEATED USING SETTINGS FROM A PREVIOUS STRESS PERIOD.

 REUSING CNCS FROM LAST STRESS PERIOD
 UBDSV1 SAVING  STORAGE-AQUEOUS ON UNIT   1024 AT TIME STEP      1, STRESS PERIOD     52
 UBDSV1 SAVING     FLOW-JA-FACE ON UNIT   1024 AT TIME STEP      1, STRESS PERIOD     52
 UBDSV06 SAVING  SOURCE-SINK MIX IN MODEL SERIES2GWT       PACKAGE SERIES2GWT      CONNECTED TO MODEL SERIES2GWT       PACKAGE SSM              ON UNIT   1024 AT TIME STEP      1, STRESS PERIOD     52
 UBDSV06 SAVING              CNC IN MODEL SERIES2GWT       PACKAGE SERIES2GWT      CONNECTED TO MODEL SERIES2GWT       PACKAGE CNC              ON UNIT   1024 AT TIME STEP      1, STRESS PERIOD     52

 CONCENTRATION WILL BE SAVED ON UNIT 1025 AT END OF TIME STEP    1, STRESS PERIOD   52


  MASS BUDGET FOR ENTIRE MODEL AT END OF TIME STEP    1, STRESS PERIOD  52
  ---------------------------------------------------------------------------------------------------

     CUMULATIVE MASS      M       RATES FOR THIS TIME STEP      M/T          PACKAGE NAME    
     ------------------                 ------------------------                     ----------------

           IN:                                      IN:
           ---                                      ---
     STORAGE-AQUEOUS =       9.0775E-02       STORAGE-AQUEOUS =       2.5893E-04     MST             
               CHD_0 =           0.0000                 CHD_0 =           0.0000     SSM             
                 CNC =         581.0807                   CNC =           2.6361     CNC             

            TOTAL IN =         581.1715              TOTAL IN =           2.6364

          OUT:                                     OUT:
          ----                                     ----
     STORAGE-AQUEOUS =         164.6252       STORAGE-AQUEOUS =       2.7029E-02     MST             
               CHD_0 =         416.4548                 CHD_0 =           2.6107     SSM             
                 CNC =           0.0000                   CNC =           0.0000     CNC             

           TOTAL OUT =         581.0799             TOTAL OUT =           2.6377

            IN - OUT =       9.1545E-02              IN - OUT =       1.3390E-03

 PERCENT DISCREPANCY =           0.02     PERCENT DISCREPANCY =          -0.05




         TIME SUMMARY AT END OF TIME STEP    1 IN STRESS PERIOD   52
                    SECONDS     MINUTES      HOURS       DAYS        YEARS
                    -----------------------------------------------------------
   TIME STEP LENGTH  300.00      5.0000     8.33333E-02 3.47222E-03 9.50643E-06
 STRESS PERIOD TIME  300.00      5.0000     8.33333E-02 3.47222E-03 9.50643E-06
         TOTAL TIME  15600.      260.00      4.3333     0.18056     4.94334E-04


end timestep


start timestep kper="53" kstp="1" mode="normal"


 OUTPUT CONTROL FOR STRESS PERIOD 53 IS REPEATED USING SETTINGS FROM A PREVIOUS STRESS PERIOD.
 UBDSV1 SAVING  STORAGE-AQUEOUS ON UNIT   1024 AT TIME STEP      1, STRESS PERIOD     53
 UBDSV1 SAVING     FLOW-JA-FACE ON UNIT   1024 AT TIME STEP      1, STRESS PERIOD     53
 UBDSV06 SAVING  SOURCE-SINK MIX IN MODEL SERIES2GWT       PACKAGE SERIES2GWT      CONNECTED TO MODEL SERIES2GWT       PACKAGE SSM              ON UNIT   1024 AT TIME STEP      1, STRESS PERIOD     53
 UBDSV06 SAVING              CNC IN MODEL SERIES2GWT       PACKAGE SERIES2GWT      CONNECTED TO MODEL SERIES2GWT       PACKAGE CNC              ON UNIT   1024 AT TIME STEP      1, STRESS PERIOD     53

 CONCENTRATION WILL BE SAVED ON UNIT 1025 AT END OF TIME STEP    1, STRESS PERIOD   53


  MASS BUDGET FOR ENTIRE MODEL AT END OF TIME STEP    1, STRESS PERIOD  53
  ---------------------------------------------------------------------------------------------------

     CUMULATIVE MASS      M       RATES FOR THIS TIME STEP      M/T          PACKAGE NAME    
     ------------------                 ------------------------                     ----------------

           IN:                                      IN:
           ---                                      ---
     STORAGE-AQUEOUS =          14.7974       STORAGE-AQUEOUS =           2.9413     MST             
               CHD_0 =           0.0000                 CHD_0 =           0.0000     SSM             
                 CNC =         581.0807                   CNC =           0.0000     CNC             

            TOTAL IN =         595.8781              TOTAL IN =           2.9413

          OUT:                                     OUT:
          ----                                     ----
     STORAGE-AQUEOUS =         164.7347       STORAGE-AQUEOUS =       2.1916E-02     MST             
               CHD_0 =         429.5111                 CHD_0 =           2.6113     SSM             
                 CNC =           1.5328                   CNC =           0.3066     CNC             

           TOTAL OUT =         595.7787             TOTAL OUT =           2.9397

            IN - OUT =       9.9490E-02              IN - OUT =       1.5888E-03

 PERCENT DISCREPANCY =           0.02     PERCENT DISCREPANCY =           0.05




         TIME SUMMARY AT END OF TIME STEP    1 IN STRESS PERIOD   53
                    SECONDS     MINUTES      HOURS       DAYS        YEARS
                    -----------------------------------------------------------
   TIME STEP LENGTH  300.00      5.0000     8.33333E-02 3.47222E-03 9.50643E-06
 STRESS PERIOD TIME  300.00      5.0000     8.33333E-02 3.47222E-03 9.50643E-06
         TOTAL TIME  15900.      265.00      4.4167     0.18403     5.03841E-04


end timestep


start timestep kper="54" kstp="1" mode="normal"


 OUTPUT CONTROL FOR STRESS PERIOD 54 IS REPEATED USING SETTINGS FROM A PREVIOUS STRESS PERIOD.

 REUSING CNCS FROM LAST STRESS PERIOD
 UBDSV1 SAVING  STORAGE-AQUEOUS ON UNIT   1024 AT TIME STEP      1, STRESS PERIOD     54
 UBDSV1 SAVING     FLOW-JA-FACE ON UNIT   1024 AT TIME STEP      1, STRESS PERIOD     54
 UBDSV06 SAVING  SOURCE-SINK MIX IN MODEL SERIES2GWT       PACKAGE SERIES2GWT      CONNECTED TO MODEL SERIES2GWT       PACKAGE SSM              ON UNIT   1024 AT TIME STEP      1, STRESS PERIOD     54
 UBDSV06 SAVING              CNC IN MODEL SERIES2GWT       PACKAGE SERIES2GWT      CONNECTED TO MODEL SERIES2GWT       PACKAGE CNC              ON UNIT   1024 AT TIME STEP      1, STRESS PERIOD     54

 CONCENTRATION WILL BE SAVED ON UNIT 1025 AT END OF TIME STEP    1, STRESS PERIOD   54


  MASS BUDGET FOR ENTIRE MODEL AT END OF TIME STEP    1, STRESS PERIOD  54
  ---------------------------------------------------------------------------------------------------

     CUMULATIVE MASS      M       RATES FOR THIS TIME STEP      M/T          PACKAGE NAME    
     ------------------                 ------------------------                     ----------------

           IN:                                      IN:
           ---                                      ---
     STORAGE-AQUEOUS =          28.1948       STORAGE-AQUEOUS =           2.6795     MST             
               CHD_0 =           0.0000                 CHD_0 =           0.0000     SSM             
                 CNC =         581.0807                   CNC =           0.0000     CNC             

            TOTAL IN =         609.2755              TOTAL IN =           2.6795

          OUT:                                     OUT:
          ----                                     ----
     STORAGE-AQUEOUS =         164.8283       STORAGE-AQUEOUS =       1.8712E-02     MST             
               CHD_0 =         442.5150                 CHD_0 =           2.6008     SSM             
                 CNC =           1.8296                   CNC =       5.9372E-02     CNC             

           TOTAL OUT =         609.1730             TOTAL OUT =           2.6789

            IN - OUT =           0.1025              IN - OUT =       6.1105E-04

 PERCENT DISCREPANCY =           0.02     PERCENT DISCREPANCY =           0.02




         TIME SUMMARY AT END OF TIME STEP    1 IN STRESS PERIOD   54
                    SECONDS     MINUTES      HOURS       DAYS        YEARS
                    -----------------------------------------------------------
   TIME STEP LENGTH  300.00      5.0000     8.33333E-02 3.47222E-03 9.50643E-06
 STRESS PERIOD TIME  300.00      5.0000     8.33333E-02 3.47222E-03 9.50643E-06
         TOTAL TIME  16200.      270.00      4.5000     0.18750     5.13347E-04


end timestep


start timestep kper="55" kstp="1" mode="normal"


 OUTPUT CONTROL FOR STRESS PERIOD 55 IS REPEATED USING SETTINGS FROM A PREVIOUS STRESS PERIOD.

 REUSING CNCS FROM LAST STRESS PERIOD
 UBDSV1 SAVING  STORAGE-AQUEOUS ON UNIT   1024 AT TIME STEP      1, STRESS PERIOD     55
 UBDSV1 SAVING     FLOW-JA-FACE ON UNIT   1024 AT TIME STEP      1, STRESS PERIOD     55
 UBDSV06 SAVING  SOURCE-SINK MIX IN MODEL SERIES2GWT       PACKAGE SERIES2GWT      CONNECTED TO MODEL SERIES2GWT       PACKAGE SSM              ON UNIT   1024 AT TIME STEP      1, STRESS PERIOD     55
 UBDSV06 SAVING              CNC IN MODEL SERIES2GWT       PACKAGE SERIES2GWT      CONNECTED TO MODEL SERIES2GWT       PACKAGE CNC              ON UNIT   1024 AT TIME STEP      1, STRESS PERIOD     55

 CONCENTRATION WILL BE SAVED ON UNIT 1025 AT END OF TIME STEP    1, STRESS PERIOD   55


  MASS BUDGET FOR ENTIRE MODEL AT END OF TIME STEP    1, STRESS PERIOD  55
  ---------------------------------------------------------------------------------------------------

     CUMULATIVE MASS      M       RATES FOR THIS TIME STEP      M/T          PACKAGE NAME    
     ------------------                 ------------------------                     ----------------

           IN:                                      IN:
           ---                                      ---
     STORAGE-AQUEOUS =          41.1827       STORAGE-AQUEOUS =           2.5976     MST             
               CHD_0 =           0.0000                 CHD_0 =           0.0000     SSM             
                 CNC =         581.0807                   CNC =           0.0000     CNC             

            TOTAL IN =         622.2634              TOTAL IN =           2.5976

          OUT:                                     OUT:
          ----                                     ----
     STORAGE-AQUEOUS =         164.9081       STORAGE-AQUEOUS =       1.5952E-02     MST             
               CHD_0 =         455.3365                 CHD_0 =           2.5643     SSM             
                 CNC =           1.9144                   CNC =       1.6957E-02     CNC             

           TOTAL OUT =         622.1590             TOTAL OUT =           2.5972

            IN - OUT =           0.1045              IN - OUT =       3.8528E-04

 PERCENT DISCREPANCY =           0.02     PERCENT DISCREPANCY =           0.01




         TIME SUMMARY AT END OF TIME STEP    1 IN STRESS PERIOD   55
                    SECONDS     MINUTES      HOURS       DAYS        YEARS
                    -----------------------------------------------------------
   TIME STEP LENGTH  300.00      5.0000     8.33333E-02 3.47222E-03 9.50643E-06
 STRESS PERIOD TIME  300.00      5.0000     8.33333E-02 3.47222E-03 9.50643E-06
         TOTAL TIME  16500.      275.00      4.5833     0.19097     5.22853E-04


end timestep


start timestep kper="56" kstp="1" mode="normal"


 OUTPUT CONTROL FOR STRESS PERIOD 56 IS REPEATED USING SETTINGS FROM A PREVIOUS STRESS PERIOD.

 REUSING CNCS FROM LAST STRESS PERIOD
 UBDSV1 SAVING  STORAGE-AQUEOUS ON UNIT   1024 AT TIME STEP      1, STRESS PERIOD     56
 UBDSV1 SAVING     FLOW-JA-FACE ON UNIT   1024 AT TIME STEP      1, STRESS PERIOD     56
 UBDSV06 SAVING  SOURCE-SINK MIX IN MODEL SERIES2GWT       PACKAGE SERIES2GWT      CONNECTED TO MODEL SERIES2GWT       PACKAGE SSM              ON UNIT   1024 AT TIME STEP      1, STRESS PERIOD     56
 UBDSV06 SAVING              CNC IN MODEL SERIES2GWT       PACKAGE SERIES2GWT      CONNECTED TO MODEL SERIES2GWT       PACKAGE CNC              ON UNIT   1024 AT TIME STEP      1, STRESS PERIOD     56

 CONCENTRATION WILL BE SAVED ON UNIT 1025 AT END OF TIME STEP    1, STRESS PERIOD   56


  MASS BUDGET FOR ENTIRE MODEL AT END OF TIME STEP    1, STRESS PERIOD  56
  ---------------------------------------------------------------------------------------------------

     CUMULATIVE MASS      M       RATES FOR THIS TIME STEP      M/T          PACKAGE NAME    
     ------------------                 ------------------------                     ----------------

           IN:                                      IN:
           ---                                      ---
     STORAGE-AQUEOUS =          53.7072       STORAGE-AQUEOUS =           2.5049     MST             
               CHD_0 =           0.0000                 CHD_0 =           0.0000     SSM             
                 CNC =         581.0807                   CNC =           0.0000     CNC             

            TOTAL IN =         634.7879              TOTAL IN =           2.5049

          OUT:                                     OUT:
          ----                                     ----
     STORAGE-AQUEOUS =         164.9753       STORAGE-AQUEOUS =       1.3445E-02     MST             
               CHD_0 =         467.7666                 CHD_0 =           2.4860     SSM             
                 CNC =           1.9445                   CNC =       6.0178E-03     CNC             

           TOTAL OUT =         634.6864             TOTAL OUT =           2.5055

            IN - OUT =           0.1015              IN - OUT =       5.9733E-04

 PERCENT DISCREPANCY =           0.02     PERCENT DISCREPANCY =          -0.02




         TIME SUMMARY AT END OF TIME STEP    1 IN STRESS PERIOD   56
                    SECONDS     MINUTES      HOURS       DAYS        YEARS
                    -----------------------------------------------------------
   TIME STEP LENGTH  300.00      5.0000     8.33333E-02 3.47222E-03 9.50643E-06
 STRESS PERIOD TIME  300.00      5.0000     8.33333E-02 3.47222E-03 9.50643E-06
         TOTAL TIME  16800.      280.00      4.6667     0.19444     5.32360E-04


end timestep


start timestep kper="57" kstp="1" mode="normal"


 OUTPUT CONTROL FOR STRESS PERIOD 57 IS REPEATED USING SETTINGS FROM A PREVIOUS STRESS PERIOD.

 REUSING CNCS FROM LAST STRESS PERIOD
 UBDSV1 SAVING  STORAGE-AQUEOUS ON UNIT   1024 AT TIME STEP      1, STRESS PERIOD     57
 UBDSV1 SAVING     FLOW-JA-FACE ON UNIT   1024 AT TIME STEP      1, STRESS PERIOD     57
 UBDSV06 SAVING  SOURCE-SINK MIX IN MODEL SERIES2GWT       PACKAGE SERIES2GWT      CONNECTED TO MODEL SERIES2GWT       PACKAGE SSM              ON UNIT   1024 AT TIME STEP      1, STRESS PERIOD     57
 UBDSV06 SAVING              CNC IN MODEL SERIES2GWT       PACKAGE SERIES2GWT      CONNECTED TO MODEL SERIES2GWT       PACKAGE CNC              ON UNIT   1024 AT TIME STEP      1, STRESS PERIOD     57

 CONCENTRATION WILL BE SAVED ON UNIT 1025 AT END OF TIME STEP    1, STRESS PERIOD   57


  MASS BUDGET FOR ENTIRE MODEL AT END OF TIME STEP    1, STRESS PERIOD  57
  ---------------------------------------------------------------------------------------------------

     CUMULATIVE MASS      M       RATES FOR THIS TIME STEP      M/T          PACKAGE NAME    
     ------------------                 ------------------------                     ----------------

           IN:                                      IN:
           ---                                      ---
     STORAGE-AQUEOUS =          65.5607       STORAGE-AQUEOUS =           2.3707     MST             
               CHD_0 =           0.0000                 CHD_0 =           0.0000     SSM             
                 CNC =         581.0807                   CNC =           0.0000     CNC             

            TOTAL IN =         646.6414              TOTAL IN =           2.3707

          OUT:                                     OUT:
          ----                                     ----
     STORAGE-AQUEOUS =         165.0315       STORAGE-AQUEOUS =       1.1244E-02     MST             
               CHD_0 =         479.5546                 CHD_0 =           2.3576     SSM             
                 CNC =           1.9570                   CNC =       2.4891E-03     CNC             

           TOTAL OUT =         646.5431             TOTAL OUT =           2.3713

            IN - OUT =       9.8287E-02              IN - OUT =       6.3951E-04

 PERCENT DISCREPANCY =           0.02     PERCENT DISCREPANCY =          -0.03




         TIME SUMMARY AT END OF TIME STEP    1 IN STRESS PERIOD   57
                    SECONDS     MINUTES      HOURS       DAYS        YEARS
                    -----------------------------------------------------------
   TIME STEP LENGTH  300.00      5.0000     8.33333E-02 3.47222E-03 9.50643E-06
 STRESS PERIOD TIME  300.00      5.0000     8.33333E-02 3.47222E-03 9.50643E-06
         TOTAL TIME  17100.      285.00      4.7500     0.19792     5.41866E-04


end timestep


start timestep kper="58" kstp="1" mode="normal"


 OUTPUT CONTROL FOR STRESS PERIOD 58 IS REPEATED USING SETTINGS FROM A PREVIOUS STRESS PERIOD.

 REUSING CNCS FROM LAST STRESS PERIOD
 UBDSV1 SAVING  STORAGE-AQUEOUS ON UNIT   1024 AT TIME STEP      1, STRESS PERIOD     58
 UBDSV1 SAVING     FLOW-JA-FACE ON UNIT   1024 AT TIME STEP      1, STRESS PERIOD     58
 UBDSV06 SAVING  SOURCE-SINK MIX IN MODEL SERIES2GWT       PACKAGE SERIES2GWT      CONNECTED TO MODEL SERIES2GWT       PACKAGE SSM              ON UNIT   1024 AT TIME STEP      1, STRESS PERIOD     58
 UBDSV06 SAVING              CNC IN MODEL SERIES2GWT       PACKAGE SERIES2GWT      CONNECTED TO MODEL SERIES2GWT       PACKAGE CNC              ON UNIT   1024 AT TIME STEP      1, STRESS PERIOD     58

 CONCENTRATION WILL BE SAVED ON UNIT 1025 AT END OF TIME STEP    1, STRESS PERIOD   58


  MASS BUDGET FOR ENTIRE MODEL AT END OF TIME STEP    1, STRESS PERIOD  58
  ---------------------------------------------------------------------------------------------------

     CUMULATIVE MASS      M       RATES FOR THIS TIME STEP      M/T          PACKAGE NAME    
     ------------------                 ------------------------                     ----------------

           IN:                                      IN:
           ---                                      ---
     STORAGE-AQUEOUS =          76.5337       STORAGE-AQUEOUS =           2.1946     MST             
               CHD_0 =           0.0000                 CHD_0 =           0.0000     SSM             
                 CNC =         581.0807                   CNC =           0.0000     CNC             

            TOTAL IN =         657.6144              TOTAL IN =           2.1946

          OUT:                                     OUT:
          ----                                     ----
     STORAGE-AQUEOUS =         165.0780       STORAGE-AQUEOUS =       9.3059E-03     MST             
               CHD_0 =         490.4733                 CHD_0 =           2.1837     SSM             
                 CNC =           1.9628                   CNC =       1.1692E-03     CNC             

           TOTAL OUT =         657.5142             TOTAL OUT =           2.1942

            IN - OUT =           0.1002              IN - OUT =       3.8732E-04

 PERCENT DISCREPANCY =           0.02     PERCENT DISCREPANCY =           0.02




         TIME SUMMARY AT END OF TIME STEP    1 IN STRESS PERIOD   58
                    SECONDS     MINUTES      HOURS       DAYS        YEARS
                    -----------------------------------------------------------
   TIME STEP LENGTH  300.00      5.0000     8.33333E-02 3.47222E-03 9.50643E-06
 STRESS PERIOD TIME  300.00      5.0000     8.33333E-02 3.47222E-03 9.50643E-06
         TOTAL TIME  17400.      290.00      4.8333     0.20139     5.51373E-04


end timestep


start timestep kper="59" kstp="1" mode="normal"


 OUTPUT CONTROL FOR STRESS PERIOD 59 IS REPEATED USING SETTINGS FROM A PREVIOUS STRESS PERIOD.

 REUSING CNCS FROM LAST STRESS PERIOD
 UBDSV1 SAVING  STORAGE-AQUEOUS ON UNIT   1024 AT TIME STEP      1, STRESS PERIOD     59
 UBDSV1 SAVING     FLOW-JA-FACE ON UNIT   1024 AT TIME STEP      1, STRESS PERIOD     59
 UBDSV06 SAVING  SOURCE-SINK MIX IN MODEL SERIES2GWT       PACKAGE SERIES2GWT      CONNECTED TO MODEL SERIES2GWT       PACKAGE SSM              ON UNIT   1024 AT TIME STEP      1, STRESS PERIOD     59
 UBDSV06 SAVING              CNC IN MODEL SERIES2GWT       PACKAGE SERIES2GWT      CONNECTED TO MODEL SERIES2GWT       PACKAGE CNC              ON UNIT   1024 AT TIME STEP      1, STRESS PERIOD     59

 CONCENTRATION WILL BE SAVED ON UNIT 1025 AT END OF TIME STEP    1, STRESS PERIOD   59


  MASS BUDGET FOR ENTIRE MODEL AT END OF TIME STEP    1, STRESS PERIOD  59
  ---------------------------------------------------------------------------------------------------

     CUMULATIVE MASS      M       RATES FOR THIS TIME STEP      M/T          PACKAGE NAME    
     ------------------                 ------------------------                     ----------------

           IN:                                      IN:
           ---                                      ---
     STORAGE-AQUEOUS =          86.4676       STORAGE-AQUEOUS =           1.9868     MST             
               CHD_0 =           0.0000                 CHD_0 =           0.0000     SSM             
                 CNC =         581.0807                   CNC =           0.0000     CNC             

            TOTAL IN =         667.5483              TOTAL IN =           1.9868

          OUT:                                     OUT:
          ----                                     ----
     STORAGE-AQUEOUS =         165.1160       STORAGE-AQUEOUS =       7.5898E-03     MST             
               CHD_0 =         500.3673                 CHD_0 =           1.9788     SSM             
                 CNC =           1.9656                   CNC =       5.6217E-04     CNC             

           TOTAL OUT =         667.4489             TOTAL OUT =           1.9870

            IN - OUT =       9.9368E-02              IN - OUT =       1.7111E-04

 PERCENT DISCREPANCY =           0.01     PERCENT DISCREPANCY =          -0.01




         TIME SUMMARY AT END OF TIME STEP    1 IN STRESS PERIOD   59
                    SECONDS     MINUTES      HOURS       DAYS        YEARS
                    -----------------------------------------------------------
   TIME STEP LENGTH  300.00      5.0000     8.33333E-02 3.47222E-03 9.50643E-06
 STRESS PERIOD TIME  300.00      5.0000     8.33333E-02 3.47222E-03 9.50643E-06
         TOTAL TIME  17700.      295.00      4.9167     0.20486     5.60879E-04


end timestep


start timestep kper="60" kstp="1" mode="normal"


 OUTPUT CONTROL FOR STRESS PERIOD 60 IS REPEATED USING SETTINGS FROM A PREVIOUS STRESS PERIOD.

 REUSING CNCS FROM LAST STRESS PERIOD
 UBDSV1 SAVING  STORAGE-AQUEOUS ON UNIT   1024 AT TIME STEP      1, STRESS PERIOD     60
 UBDSV1 SAVING     FLOW-JA-FACE ON UNIT   1024 AT TIME STEP      1, STRESS PERIOD     60
 UBDSV06 SAVING  SOURCE-SINK MIX IN MODEL SERIES2GWT       PACKAGE SERIES2GWT      CONNECTED TO MODEL SERIES2GWT       PACKAGE SSM              ON UNIT   1024 AT TIME STEP      1, STRESS PERIOD     60
 UBDSV06 SAVING              CNC IN MODEL SERIES2GWT       PACKAGE SERIES2GWT      CONNECTED TO MODEL SERIES2GWT       PACKAGE CNC              ON UNIT   1024 AT TIME STEP      1, STRESS PERIOD     60

 CONCENTRATION WILL BE SAVED ON UNIT 1025 AT END OF TIME STEP    1, STRESS PERIOD   60


  MASS BUDGET FOR ENTIRE MODEL AT END OF TIME STEP    1, STRESS PERIOD  60
  ---------------------------------------------------------------------------------------------------

     CUMULATIVE MASS      M       RATES FOR THIS TIME STEP      M/T          PACKAGE NAME    
     ------------------                 ------------------------                     ----------------

           IN:                                      IN:
           ---                                      ---
     STORAGE-AQUEOUS =          95.3140       STORAGE-AQUEOUS =           1.7693     MST             
               CHD_0 =           0.0000                 CHD_0 =           0.0000     SSM             
                 CNC =         581.0807                   CNC =           0.0000     CNC             

            TOTAL IN =         676.3947              TOTAL IN =           1.7693

          OUT:                                     OUT:
          ----                                     ----
     STORAGE-AQUEOUS =         165.1464       STORAGE-AQUEOUS =       6.0905E-03     MST             
               CHD_0 =         509.1790                 CHD_0 =           1.7623     SSM             
                 CNC =           1.9670                   CNC =       2.8263E-04     CNC             

           TOTAL OUT =         676.2925             TOTAL OUT =           1.7687

            IN - OUT =           0.1022              IN - OUT =       5.7130E-04

 PERCENT DISCREPANCY =           0.02     PERCENT DISCREPANCY =           0.03




         TIME SUMMARY AT END OF TIME STEP    1 IN STRESS PERIOD   60
                    SECONDS     MINUTES      HOURS       DAYS        YEARS
                    -----------------------------------------------------------
   TIME STEP LENGTH  300.00      5.0000     8.33333E-02 3.47222E-03 9.50643E-06
 STRESS PERIOD TIME  300.00      5.0000     8.33333E-02 3.47222E-03 9.50643E-06
         TOTAL TIME  18000.      300.00      5.0000     0.20833     5.70386E-04


end timestep


start timestep kper="61" kstp="1" mode="normal"


 OUTPUT CONTROL FOR STRESS PERIOD 61 IS REPEATED USING SETTINGS FROM A PREVIOUS STRESS PERIOD.

 REUSING CNCS FROM LAST STRESS PERIOD
 UBDSV1 SAVING  STORAGE-AQUEOUS ON UNIT   1024 AT TIME STEP      1, STRESS PERIOD     61
 UBDSV1 SAVING     FLOW-JA-FACE ON UNIT   1024 AT TIME STEP      1, STRESS PERIOD     61
 UBDSV06 SAVING  SOURCE-SINK MIX IN MODEL SERIES2GWT       PACKAGE SERIES2GWT      CONNECTED TO MODEL SERIES2GWT       PACKAGE SSM              ON UNIT   1024 AT TIME STEP      1, STRESS PERIOD     61
 UBDSV06 SAVING              CNC IN MODEL SERIES2GWT       PACKAGE SERIES2GWT      CONNECTED TO MODEL SERIES2GWT       PACKAGE CNC              ON UNIT   1024 AT TIME STEP      1, STRESS PERIOD     61

 CONCENTRATION WILL BE SAVED ON UNIT 1025 AT END OF TIME STEP    1, STRESS PERIOD   61


  MASS BUDGET FOR ENTIRE MODEL AT END OF TIME STEP    1, STRESS PERIOD  61
  ---------------------------------------------------------------------------------------------------

     CUMULATIVE MASS      M       RATES FOR THIS TIME STEP      M/T          PACKAGE NAME    
     ------------------                 ------------------------                     ----------------

           IN:                                      IN:
           ---                                      ---
     STORAGE-AQUEOUS =         103.0953       STORAGE-AQUEOUS =           1.5563     MST             
               CHD_0 =           0.0000                 CHD_0 =           0.0000     SSM             
                 CNC =         581.0807                   CNC =           0.0000     CNC             

            TOTAL IN =         684.1760              TOTAL IN =           1.5563

          OUT:                                     OUT:
          ----                                     ----
     STORAGE-AQUEOUS =         165.1707       STORAGE-AQUEOUS =       4.8446E-03     MST             
               CHD_0 =         516.9347                 CHD_0 =           1.5511     SSM             
                 CNC =           1.9678                   CNC =       1.4670E-04     CNC             

           TOTAL OUT =         684.0731             TOTAL OUT =           1.5561

            IN - OUT =           0.1029              IN - OUT =       1.3303E-04

 PERCENT DISCREPANCY =           0.02     PERCENT DISCREPANCY =           0.01




         TIME SUMMARY AT END OF TIME STEP    1 IN STRESS PERIOD   61
                    SECONDS     MINUTES      HOURS       DAYS        YEARS
                    -----------------------------------------------------------
   TIME STEP LENGTH  300.00      5.0000     8.33333E-02 3.47222E-03 9.50643E-06
 STRESS PERIOD TIME  300.00      5.0000     8.33333E-02 3.47222E-03 9.50643E-06
         TOTAL TIME  18300.      305.00      5.0833     0.21181     5.79892E-04


end timestep


start timestep kper="62" kstp="1" mode="normal"


 OUTPUT CONTROL FOR STRESS PERIOD 62 IS REPEATED USING SETTINGS FROM A PREVIOUS STRESS PERIOD.

 REUSING CNCS FROM LAST STRESS PERIOD
 UBDSV1 SAVING  STORAGE-AQUEOUS ON UNIT   1024 AT TIME STEP      1, STRESS PERIOD     62
 UBDSV1 SAVING     FLOW-JA-FACE ON UNIT   1024 AT TIME STEP      1, STRESS PERIOD     62
 UBDSV06 SAVING  SOURCE-SINK MIX IN MODEL SERIES2GWT       PACKAGE SERIES2GWT      CONNECTED TO MODEL SERIES2GWT       PACKAGE SSM              ON UNIT   1024 AT TIME STEP      1, STRESS PERIOD     62
 UBDSV06 SAVING              CNC IN MODEL SERIES2GWT       PACKAGE SERIES2GWT      CONNECTED TO MODEL SERIES2GWT       PACKAGE CNC              ON UNIT   1024 AT TIME STEP      1, STRESS PERIOD     62

 CONCENTRATION WILL BE SAVED ON UNIT 1025 AT END OF TIME STEP    1, STRESS PERIOD   62


  MASS BUDGET FOR ENTIRE MODEL AT END OF TIME STEP    1, STRESS PERIOD  62
  ---------------------------------------------------------------------------------------------------

     CUMULATIVE MASS      M       RATES FOR THIS TIME STEP      M/T          PACKAGE NAME    
     ------------------                 ------------------------                     ----------------

           IN:                                      IN:
           ---                                      ---
     STORAGE-AQUEOUS =         109.9001       STORAGE-AQUEOUS =           1.3610     MST             
               CHD_0 =           0.0000                 CHD_0 =           0.0000     SSM             
                 CNC =         581.0807                   CNC =           0.0000     CNC             

            TOTAL IN =         690.9808              TOTAL IN =           1.3610

          OUT:                                     OUT:
          ----                                     ----
     STORAGE-AQUEOUS =         165.1898       STORAGE-AQUEOUS =       3.8300E-03     MST             
               CHD_0 =         523.7175                 CHD_0 =           1.3566     SSM             
                 CNC =           1.9682                   CNC =       7.7751E-05     CNC             

           TOTAL OUT =         690.8754             TOTAL OUT =           1.3605

            IN - OUT =           0.1054              IN - OUT =       5.0562E-04

 PERCENT DISCREPANCY =           0.02     PERCENT DISCREPANCY =           0.04




         TIME SUMMARY AT END OF TIME STEP    1 IN STRESS PERIOD   62
                    SECONDS     MINUTES      HOURS       DAYS        YEARS
                    -----------------------------------------------------------
   TIME STEP LENGTH  300.00      5.0000     8.33333E-02 3.47222E-03 9.50643E-06
 STRESS PERIOD TIME  300.00      5.0000     8.33333E-02 3.47222E-03 9.50643E-06
         TOTAL TIME  18600.      310.00      5.1667     0.21528     5.89398E-04


end timestep


start timestep kper="63" kstp="1" mode="normal"


 OUTPUT CONTROL FOR STRESS PERIOD 63 IS REPEATED USING SETTINGS FROM A PREVIOUS STRESS PERIOD.

 REUSING CNCS FROM LAST STRESS PERIOD
 UBDSV1 SAVING  STORAGE-AQUEOUS ON UNIT   1024 AT TIME STEP      1, STRESS PERIOD     63
 UBDSV1 SAVING     FLOW-JA-FACE ON UNIT   1024 AT TIME STEP      1, STRESS PERIOD     63
 UBDSV06 SAVING  SOURCE-SINK MIX IN MODEL SERIES2GWT       PACKAGE SERIES2GWT      CONNECTED TO MODEL SERIES2GWT       PACKAGE SSM              ON UNIT   1024 AT TIME STEP      1, STRESS PERIOD     63
 UBDSV06 SAVING              CNC IN MODEL SERIES2GWT       PACKAGE SERIES2GWT      CONNECTED TO MODEL SERIES2GWT       PACKAGE CNC              ON UNIT   1024 AT TIME STEP      1, STRESS PERIOD     63

 CONCENTRATION WILL BE SAVED ON UNIT 1025 AT END OF TIME STEP    1, STRESS PERIOD   63


  MASS BUDGET FOR ENTIRE MODEL AT END OF TIME STEP    1, STRESS PERIOD  63
  ---------------------------------------------------------------------------------------------------

     CUMULATIVE MASS      M       RATES FOR THIS TIME STEP      M/T          PACKAGE NAME    
     ------------------                 ------------------------                     ----------------

           IN:                                      IN:
           ---                                      ---
     STORAGE-AQUEOUS =         115.8413       STORAGE-AQUEOUS =           1.1882     MST             
               CHD_0 =           0.0000                 CHD_0 =           0.0000     SSM             
                 CNC =         581.0807                   CNC =           0.0000     CNC             

            TOTAL IN =         696.9220              TOTAL IN =           1.1882

          OUT:                                     OUT:
          ----                                     ----
     STORAGE-AQUEOUS =         165.2049       STORAGE-AQUEOUS =       3.0125E-03     MST             
               CHD_0 =         529.6434                 CHD_0 =           1.1852     SSM             
                 CNC =           1.9684                   CNC =       4.1980E-05     CNC             

           TOTAL OUT =         696.8166             TOTAL OUT =           1.1882

            IN - OUT =           0.1054              IN - OUT =       8.7211E-06

 PERCENT DISCREPANCY =           0.02     PERCENT DISCREPANCY =          -0.00




         TIME SUMMARY AT END OF TIME STEP    1 IN STRESS PERIOD   63
                    SECONDS     MINUTES      HOURS       DAYS        YEARS
                    -----------------------------------------------------------
   TIME STEP LENGTH  300.00      5.0000     8.33333E-02 3.47222E-03 9.50643E-06
 STRESS PERIOD TIME  300.00      5.0000     8.33333E-02 3.47222E-03 9.50643E-06
         TOTAL TIME  18900.      315.00      5.2500     0.21875     5.98905E-04


end timestep

